47

Mg	  31.8730000000	  20.2334000000	  18.8005000000
O	  33.9788000000	  19.7783000000	  18.9593000000
C	  34.7759000000	  18.7777000000	  18.3816000000
C	  34.8097000000	  20.9314000000	  19.2564000000
C	  33.9429000000	  21.8850000000	  20.0983000000
O	  32.4864000000	  21.7273000000	  19.8051000000
C	  31.6428000000	  22.6890000000	  20.5485000000
H	  35.7026000000	  19.0986000000	  17.9117000000
H	  34.1715000000	  18.2927000000	  17.6091000000
H	  35.1054000000	  21.4579000000	  18.3172000000
H	  35.5629000000	  20.7102000000	  20.0361000000
H	  34.2273000000	  22.9094000000	  19.8527000000
H	  34.1230000000	  21.6844000000	  21.1747000000
H	  31.3740000000	  23.5639000000	  19.9848000000
H	  32.1616000000	  23.0261000000	  21.4727000000
H	  30.8636000000	  22.1953000000	  21.0016000000
H	  35.1040000000	  18.1018000000	  19.1750000000
N	  31.5581000000	  17.0290000000	  19.3419000000
S	  30.8359000000	  17.5170000000	  18.0991000000
O	  29.6056000000	  18.0773000000	  18.6082000000
O	  31.6713000000	  18.7134000000	  17.8155000000
C	  30.6150000000	  16.5521000000	  16.6506000000
F	  29.8979000000	  17.2266000000	  15.7257000000
F	  29.9638000000	  15.4779000000	  16.8977000000
F	  31.7429000000	  16.1723000000	  16.1941000000
S	  31.5938000000	  18.0818000000	  20.7884000000
O	  31.2195000000	  19.4249000000	  20.2276000000
O	  32.8734000000	  17.7787000000	  21.2670000000
C	  30.2916000000	  17.7483000000	  22.0730000000
F	  30.3343000000	  16.4789000000	  22.5119000000
F	  30.5428000000	  18.4301000000	  23.1842000000
F	  29.0372000000	  18.0165000000	  21.5866000000
N	  30.3901000000	  21.9577000000	  15.9370000000
S	  31.9733000000	  22.0291000000	  16.1009000000
O	  32.2751000000	  21.1944000000	  17.2548000000
O	  32.6001000000	  21.6274000000	  14.8801000000
C	  32.5175000000	  23.7234000000	  16.3313000000
F	  32.2580000000	  24.0336000000	  17.6093000000
F	  31.9040000000	  24.6418000000	  15.5810000000
F	  33.8176000000	  23.8591000000	  16.0899000000
S	  29.3266000000	  21.5414000000	  17.2665000000
O	  30.1120000000	  21.0053000000	  18.4178000000
O	  28.4254000000	  20.5486000000	  16.5980000000
C	  28.5156000000	  23.0715000000	  17.8334000000
F	  29.5700000000	  23.9181000000	  18.0961000000
F	  27.8099000000	  23.5746000000	  16.8614000000
F	  27.7909000000	  22.8535000000	  18.9538000000
