49

Mg	  33.1120000000	   4.2323200000	   2.2491500000
O	  34.1615000000	   2.7912200000	   2.9646400000
O	  34.8611000000	   4.9289000000	   1.7248500000
C	  35.5603000000	   3.0584600000	   3.1370500000
C	  36.0211000000	   4.1460100000	   2.2383300000
C	  33.9138000000	   1.4077600000	   3.3619300000
C	  35.2372000000	   6.1603300000	   1.1073800000
H	  35.6691000000	   3.4461400000	   4.1189800000
H	  36.3051000000	   2.2891300000	   3.0678400000
H	  36.8321000000	   4.6713400000	   2.8057100000
H	  36.5251000000	   3.7097900000	   1.3617800000
H	  32.7861000000	   1.2310200000	   3.2944100000
H	  34.4163000000	   0.7092130000	   2.6511600000
H	  34.3385000000	   1.2220300000	   4.3180200000
H	  35.7590000000	   6.0376300000	   0.1141511638
H	  34.3309000000	   6.7776200000	   0.8716970000
H	  35.8320000000	   6.7834000000	   1.7629500000
O	  31.5862000000	   3.2845000000	   2.9971500000
O	  33.2992000000	   4.8062900000	   4.0878200000
C	  31.1414000000	   3.7743000000	   4.2450400000
C	  32.3788000000	   4.2098900000	   4.9725100000
C	  30.5655000000	   2.5024900000	   2.4270800000
C	  34.1029000000	   5.6210000000	   4.8996900000
H	  30.5292000000	   4.6958200000	   4.0054300000
H	  30.6006000000	   2.9926800000	   4.8247100000
H	  32.0897000000	   4.9191200000	   5.7820600000
H	  32.9952000000	   3.5315100000	   5.5202100000
H	  31.0017000000	   2.0355900000	   1.6054300000
H	  30.1480000000	   1.6629700000	   3.0737900000
H	  29.7394000000	   3.1708000000	   2.1731400000
H	  34.8135000000	   6.1114300000	   4.2399400000
H	  33.5479000000	   6.4841000000	   5.3744800000
H	  34.5600000000	   5.0801300000	   5.6979200000
O	  31.9839000000	   5.6917000000	   1.6769400000
O	  33.0928000000	   3.6272500000	   0.5281950000
C	  31.5914000000	   5.5534600000	   0.3098511638
C	  31.9936000000	   4.1946100000	  -0.2636488362
C	  31.2781000000	   6.9172100000	   2.1660300000
C	  33.5887000000	   2.4013900000	  -0.0261488362
H	  30.4343000000	   5.6881300000	   0.2119511638
H	  31.9258000000	   6.4138400000	  -0.2448488362
H	  31.1970000000	   3.4313300000	  -0.2780488362
H	  32.2803000000	   4.3814700000	  -1.2868488362
H	  31.6456000000	   7.7908000000	   1.5803300000
H	  30.1445000000	   6.8524100000	   2.1076400000
H	  31.5725000000	   7.1273800000	   3.2498900000
H	  34.0590000000	   2.5564200000	  -0.9688488362
H	  34.2926000000	   1.8100000000	   0.5640770000
H	  32.8462000000	   1.6155400000	  -0.1894488362
