48

Mg	   3.9515200000	  39.2321000000	  26.2224000000
O	   4.2847800000	  40.5679000000	  24.7256000000
C	   4.1612100000	  40.5296000000	  23.2417000000
C	   5.2465300000	  41.5360000000	  25.1003000000
C	   5.4282100000	  41.5568000000	  26.5781000000
O	   5.2053400000	  40.2359000000	  27.1738000000
C	   5.9141500000	  40.1788000000	  28.4199000000
H	   3.6287600000	  41.5044000000	  22.9753000000
H	   3.6132300000	  39.6718000000	  23.0012000000
H	   4.8590500000	  42.5725000000	  24.9404000000
H	   6.1791200000	  41.3280000000	  24.6153000000
H	   4.7177500000	  42.1906000000	  27.1048000000
H	   6.4510900000	  41.8628000000	  26.7407000000
H	   5.5048100000	  40.7629000000	  29.2653000000
H	   6.9912500000	  40.4846000000	  28.2941000000
H	   5.9274600000	  39.1241000000	  28.7203000000
H	   5.0986500000	  40.5925000000	  22.6643000000
O	   5.3831700000	  37.9935000000	  25.6646000000
C	   6.5250700000	  38.0836000000	  24.8505000000
C	   5.2270500000	  36.7588000000	  26.3361000000
C	   4.0512100000	  36.8102000000	  27.3409000000
O	   3.7283600000	  38.1541000000	  27.7233000000
C	   2.8463700000	  38.0988000000	  28.9438000000
H	   7.3840200000	  37.8380000000	  25.5064000000
H	   6.5945000000	  39.0830000000	  24.5053000000
H	   6.1468300000	  36.5085000000	  26.8624000000
H	   5.2815400000	  35.9535000000	  25.5940000000
H	   4.3535700000	  36.1408000000	  28.1860000000
H	   3.1889300000	  36.4325000000	  26.7558000000
H	   3.3978400000	  37.5518000000	  29.7542000000
H	   1.8628200000	  37.5486000000	  28.7400000000
H	   2.6461400000	  39.1178000000	  29.2309000000
H	   6.4289200000	  37.4147000000	  24.0500000000
N	   0.8218400000	  39.8201000000	  24.9085000000
S	   1.3589600000	  38.3851000000	  24.8500000000
O	   2.7800700000	  38.4954000000	  24.9483000000
O	   1.2133000000	  37.8808000000	  26.1491000000
C	   0.8145400000	  37.2188000000	  23.5770000000
F	   0.2565400000	  37.7942000000	  22.5213000000
F	  -0.1865600000	  36.3811000000	  23.9965000000
F	   1.8947000000	  36.4740000000	  23.2031000000
S	   1.1233600000	  40.8071000000	  26.2374000000
O	   2.4920100000	  40.4140000000	  26.6402000000
O	   0.0795400000	  40.4626000000	  27.1827000000
C	   1.1442400000	  42.5252000000	  25.6008000000
F	   2.3040600000	  42.7246000000	  24.9889000000
F	   0.0814400000	  42.6323000000	  24.7621000000
F	   1.0931600000	  43.3700000000	  26.6469000000
