62

Mg	  29.6307000000	  11.2584000000	  11.0475000000
O	  29.4018000000	   9.7433300000	  12.4892000000
C	  28.9690000000	   8.4179900000	  12.2995000000
C	  29.3307000000	  10.2698000000	  13.8541000000
C	  30.3171000000	  11.5020000000	  14.0927000000
O	  30.3563000000	  12.1604000000	  12.8270000000
C	  31.2423000000	  13.3087000000	  12.8292000000
H	  27.8193000000	   8.3968500000	  12.4216000000
H	  29.5288000000	   7.6974200000	  12.9831000000
H	  29.5362000000	   9.5033900000	  14.5811000000
H	  28.3244000000	  10.5415000000	  14.0409000000
H	  31.2752000000	  10.9842000000	  14.3496000000
H	  29.8798000000	  12.1661000000	  14.8199000000
H	  30.7955000000	  14.1814000000	  13.2799000000
H	  31.3682000000	  13.5321000000	  11.7290000000
H	  32.3078000000	  13.1206000000	  13.0342000000
H	  29.1999000000	   8.1040800000	  11.3268000000
N	  28.0257000000	  14.2257000000	  10.4793000000
S	  28.9083000000	  13.5561000000	   9.3601800000
O	  29.9338000000	  12.6280000000	   9.8639800000
O	  27.9655000000	  12.5635000000	   8.9295600000
C	  29.5169000000	  14.6785000000	   8.1098300000
F	  28.5488000000	  15.5595000000	   7.7690800000
F	  29.9382000000	  13.9946000000	   7.0122600000
F	  30.5442000000	  15.4205000000	   8.5684400000
S	  27.4456000000	  13.2653000000	  11.7946000000
O	  27.9972000000	  14.0625000000	  12.9341000000
O	  28.1286000000	  11.9571000000	  11.5729000000
C	  25.6280000000	  12.9847000000	  11.8645000000
F	  24.8559000000	  14.0206000000	  12.2073000000
F	  25.1836000000	  12.5843000000	  10.6720000000
F	  25.3281000000	  12.0204000000	  12.6868000000
N	  29.9349000000	   7.9886500000	   8.8692400000
S	  29.9344000000	   6.6169800000	   8.2305200000
O	  29.9912000000	   5.7491000000	   9.3596000000
O	  28.8651000000	   6.1696600000	   7.4082800000
C	  31.5074000000	   6.3011500000	   7.2507500000
F	  31.5979000000	   4.9986200000	   6.8325600000
F	  32.5932000000	   6.6154600000	   8.0135900000
F	  31.6221000000	   7.1374500000	   6.2258000000
S	  28.5789000000	   9.0588000000	   8.7611700000
O	  28.9673000000	  10.0368000000	   9.8145300000
O	  27.3741000000	   8.2208300000	   8.9055400000
C	  28.6342000000	   9.8397500000	   7.1331200000
F	  29.8229000000	  10.4964000000	   6.9784800000
F	  28.5835000000	   8.9423800000	   6.1584900000
F	  27.6536000000	  10.6860000000	   6.9126900000
N	  32.6899000000	  11.1544000000	   8.8475700000
S	  32.8017000000	  10.7427000000	  10.3311000000
O	  33.3634000000	  11.8144000000	  11.0914000000
O	  31.4238000000	  10.5803000000	  10.7805000000
C	  33.6991000000	   9.2960300000	  10.9209000000
F	  33.3635000000	   8.1375800000	  10.3191000000
F	  33.3490000000	   9.1086300000	  12.2329000000
F	  35.0287000000	   9.3896000000	  11.0420000000
S	  34.0635000000	  11.3217000000	   7.8358500000
O	  33.5834000000	  10.6048000000	   6.6620700000
O	  35.2978000000	  10.7140000000	   8.3879200000
C	  34.3042000000	  13.1784000000	   7.7371700000
F	  33.1941000000	  13.6991000000	   7.2501100000
F	  34.6334000000	  13.7033000000	   8.8992700000
F	  35.2357000000	  13.5075000000	   6.9072000000
