63

Mg	  31.3178000000	  31.2410000000	  25.9612000000
O	  30.7115000000	  29.3621000000	  25.2611000000
O	  32.7497000000	  30.1558000000	  26.6075000000
C	  30.9926000000	  28.3169000000	  26.2241000000
C	  32.4261000000	  28.6883000000	  26.7032000000
C	  29.6995000000	  28.9221000000	  24.4703000000
C	  34.0985000000	  30.4235000000	  27.0562000000
H	  30.3174000000	  28.4145000000	  27.1216000000
H	  30.6971000000	  27.2996000000	  25.9075000000
H	  32.6189000000	  28.3083000000	  27.6795000000
H	  33.1019000000	  28.1089000000	  26.0191000000
H	  28.8892000000	  28.5679000000	  25.1157000000
H	  29.4096000000	  29.7402000000	  23.7832000000
H	  30.0719000000	  28.1040000000	  23.8408000000
H	  34.2545000000	  30.1482000000	  28.0692000000
H	  34.7345000000	  29.8031000000	  26.4366000000
H	  34.3540000000	  31.4813000000	  26.9015000000
O	  29.6013000000	  31.9610000000	  25.4562000000
O	  30.4498000000	  30.9476000000	  27.7016000000
C	  28.6284000000	  32.0273000000	  26.5684000000
C	  29.0255000000	  31.0344000000	  27.6825000000
C	  29.2848000000	  32.9360000000	  24.4639000000
C	  30.9120000000	  30.6412000000	  29.0471000000
H	  28.5212000000	  33.0333000000	  26.9239000000
H	  27.6645000000	  31.8134000000	  26.2228000000
H	  28.6502000000	  31.3324000000	  28.6952000000
H	  28.5189000000	  30.0666000000	  27.6057000000
H	  29.6560000000	  32.6415000000	  23.5122000000
H	  28.1994000000	  33.2194000000	  24.4653000000
H	  29.6684000000	  33.9520000000	  24.6339000000
H	  32.0046000000	  30.5232000000	  29.0626000000
H	  30.7900000000	  31.4303000000	  29.8137000000
H	  30.3833000000	  29.8619000000	  29.5474000000
N	  33.2478000000	  30.7038000000	  22.0234000000
S	  33.1568000000	  31.7924000000	  23.1431000000
O	  32.2162000000	  31.3750000000	  24.1770000000
O	  34.4422000000	  32.2846000000	  23.6497000000
C	  32.3493000000	  33.1366000000	  22.2477000000
F	  31.6173000000	  33.8708000000	  23.1214000000
F	  31.4942000000	  32.6135000000	  21.3577000000
F	  33.1454000000	  33.9500000000	  21.5757000000
S	  34.4267000000	  30.1665000000	  21.2777000000
O	  35.4322000000	  31.1004000000	  20.9149000000
O	  33.9949000000	  29.2165000000	  20.2644000000
C	  35.1538000000	  29.0640000000	  22.5388000000
F	  36.2777000000	  28.4709000000	  22.1611000000
F	  35.3880000000	  29.7430000000	  23.6981000000
F	  34.2855000000	  28.0988000000	  22.8299000000
N	  32.0034000000	  34.8973000000	  28.3574000000
S	  32.0943000000	  34.1409000000	  29.6867000000
O	  30.8439000000	  34.0756000000	  30.4330000000
O	  32.9937000000	  32.9731000000	  29.5668000000
C	  33.1990000000	  35.2964000000	  30.6498000000
F	  34.3530000000	  35.4915000000	  30.0103000000
F	  33.4988000000	  34.8337000000	  31.8724000000
F	  32.7021000000	  36.5451000000	  30.9272000000
S	  32.3466000000	  34.4419000000	  26.8693000000
O	  31.6825000000	  35.3312000000	  25.9520000000
O	  32.0952000000	  33.0132000000	  26.6024000000
C	  34.1023000000	  34.7135000000	  26.7599000000
F	  34.6552000000	  34.6632000000	  25.5798000000
F	  34.4330000000	  35.8462000000	  27.3158000000
F	  34.7746000000	  33.8804000000	  27.5520000000
