64

Mg	  22.4984000000	   0.6573390000	   1.8302600000
O	  24.1425000000	   0.5687350000	   0.8199040000
O	  23.7427000000	   1.0102500000	   3.1591200000
C	  25.3353000000	   0.6111330000	   1.5009000000
C	  25.1380000000	   1.1947000000	   2.8671700000
C	  24.4484000000	   0.6692690000	  -0.5754488362
C	  23.6183000000	   1.3856200000	   4.5558300000
H	  25.6683000000	  -0.4679488362	   1.4821900000
H	  26.2037000000	   1.0665700000	   1.0908300000
H	  25.6948000000	   0.6334260000	   3.5704700000
H	  25.5605000000	   2.2443200000	   2.9991400000
H	  24.8947000000	  -0.3222488362	  -0.9164488362
H	  23.6941000000	   0.7993750000	  -1.3071488362
H	  25.1580000000	   1.4607900000	  -0.8166488362
H	  22.6575000000	   1.2134500000	   5.0423000000
H	  24.2214000000	   0.6097860000	   5.0979500000
H	  24.0900000000	   2.3041200000	   4.7808400000
O	  22.8021000000	  -1.8453488362	  -0.4043488362
O	  22.5262000000	  -1.2945488362	   2.3414800000
C	  22.5840000000	  -2.8520488362	   0.5802420000
C	  21.6977000000	  -2.2274488362	   1.6679600000
C	  23.4911000000	  -2.2989488362	  -1.5379488362
C	  23.3525000000	  -2.0149488362	   3.2547600000
H	  22.0539000000	  -3.7116488362	   0.2050511638
H	  23.5633000000	  -3.2011488362	   0.9565370000
H	  20.7496000000	  -1.7445488362	   1.3148000000
H	  21.3094000000	  -2.9979488362	   2.3220100000
H	  23.1159000000	  -3.2070488362	  -1.9952488362
H	  23.5111000000	  -1.5946488362	  -2.4183488362
H	  24.5484000000	  -2.4757488362	  -1.2991488362
H	  23.0286000000	  -2.9850488362	   3.6171300000
H	  24.2900000000	  -2.1792488362	   2.8032300000
H	  23.5064000000	  -1.5681488362	   4.2471400000
O	  22.1194000000	   2.6656800000	   1.6788500000
O	  20.9273000000	   0.7961150000	   3.0833200000
C	  21.3983000000	   3.1357900000	   2.8196100000
C	  20.4804000000	   2.1244000000	   3.3678600000
C	  22.8358000000	   3.6865900000	   1.0145100000
C	  20.1212000000	  -0.0681488362	   3.9186200000
H	  22.1139000000	   3.5189300000	   3.5692600000
H	  20.8372000000	   4.0088200000	   2.5401000000
H	  20.4778000000	   2.3237100000	   4.4558500000
H	  19.5291000000	   2.2433600000	   2.9268800000
H	  23.3375000000	   3.3314500000	   0.1509511638
H	  22.0914000000	   4.3922200000	   0.6134180000
H	  23.5622000000	   4.1727400000	   1.6284100000
H	  20.1726000000	  -1.1731488362	   3.7458200000
H	  20.2276000000	   0.1567511638	   5.0064700000
H	  19.1157000000	   0.0958511638	   3.5774300000
N	  20.3298000000	   2.4451800000	  -1.2631488362
S	  19.2507000000	   3.5263700000	  -1.7205488362
O	  17.9898000000	   2.9553800000	  -2.0756488362
O	  19.2129000000	   4.6832900000	  -0.9187488362
C	  19.9365000000	   3.9584600000	  -3.3312488362
F	  19.2882000000	   4.9119600000	  -3.9390488362
F	  19.9654000000	   2.9178500000	  -4.1531488362
F	  21.1746000000	   4.3033700000	  -3.2374488362
S	  20.1164000000	   1.0856200000	  -0.5211488362
O	  18.8731000000	   0.8961200000	   0.1997511638
O	  21.2925000000	   0.6765280000	   0.1739511638
C	  20.0315000000	  -0.0749488362	  -1.9469488362
F	  21.2013000000	  -0.1201488362	  -2.5734488362
F	  19.7028000000	  -1.2759488362	  -1.5703488362
F	  19.1271000000	   0.2983511638	  -2.8650488362
