49

Mg	   9.2802300000	   8.9098000000	  19.6555000000
O	   8.5093000000	  10.7330000000	  19.5057000000
C	   8.7892500000	  12.0398000000	  18.8166000000
C	   7.2073500000	  10.8597000000	  20.0495000000
C	   6.7724000000	   9.6778000000	  20.9447000000
O	   7.6457800000	   8.6160900000	  20.6161000000
C	   7.3132000000	   7.3439400000	  21.3480000000
H	   8.7533500000	  12.8954000000	  19.5550000000
H	   7.9731500000	  12.1429000000	  18.1026000000
H	   6.5326700000	  10.8820000000	  19.2065000000
H	   7.0697300000	  11.8126000000	  20.6078000000
H	   5.7271300000	   9.3355500000	  20.7525000000
H	   6.9320100000	   9.9061600000	  22.0733000000
H	   6.2458200000	   7.2930300000	  21.3638000000
H	   7.5356800000	   7.4504300000	  22.3702000000
H	   7.8253400000	   6.4859000000	  20.8971000000
H	   9.8003800000	  12.1051000000	  18.2759000000
O	  10.2481000000	   9.5096300000	  21.0998000000
C	  10.0086000000	   9.4793500000	  22.4973000000
C	  11.5796000000	  10.0079000000	  20.8667000000
C	  11.9036000000	  10.1837000000	  19.3937000000
O	  10.8528000000	   9.5279600000	  18.5090000000
C	  11.3189000000	   9.7200900000	  17.1852000000
H	  10.9387000000	   9.2522300000	  23.0072000000
H	   9.2155900000	   8.7605100000	  22.8040000000
H	  12.2994000000	   9.2779800000	  21.2757000000
H	  11.7546000000	  10.9823000000	  21.3150000000
H	  12.9096000000	   9.7810800000	  19.2676000000
H	  11.9635000000	  11.2716000000	  19.0796000000
H	  10.6642000000	   9.1537900000	  16.4933000000
H	  12.3743000000	   9.3200900000	  17.1081000000
H	  11.3076000000	  10.7461000000	  16.9212000000
H	   9.6854400000	  10.4838000000	  22.8599000000
O	   9.9782300000	   7.1512300000	  19.6538000000
C	  10.5782000000	   6.3616000000	  20.6792000000
C	   9.8608500000	   6.2369700000	  18.5453000000
C	   8.9489400000	   6.9724100000	  17.5970000000
O	   8.4561700000	   8.2249900000	  18.1328000000
C	   7.1972200000	   8.5654200000	  17.4385000000
H	  10.6385000000	   6.8343200000	  21.6469000000
H	  11.5794000000	   6.1347300000	  20.3926000000
H	   9.4110700000	   5.2589400000	  18.8769000000
H	  10.8221000000	   6.1084500000	  18.0796000000
H	   8.1317600000	   6.3480800000	  17.2934000000
H	   9.5428900000	   7.2211200000	  16.6792000000
H	   6.3372900000	   8.0909900000	  17.9684000000
H	   7.1779300000	   8.2926500000	  16.2918000000
H	   7.1137100000	   9.6152100000	  17.5463000000
H	   9.9995700000	   5.4677000000	  20.8355000000
