47

Mg	   3.9178500000	  27.6456000000	  29.5562000000
O	   2.7218800000	  28.9828000000	  30.5918000000
C	   2.6075500000	  30.3561000000	  30.0771000000
C	   1.6308600000	  28.7418000000	  31.6218000000
C	   0.2085400000	  28.3593000000	  31.1414000000
O	   0.3016400000	  26.9392000000	  30.8662000000
C	  -0.8848600000	  26.3362000000	  30.1914000000
H	   3.1073200000	  31.0722000000	  30.7376000000
H	   1.5758700000	  30.6713000000	  29.8318000000
H	   1.4799000000	  29.6280000000	  32.3130000000
H	   1.9171400000	  27.9376000000	  32.2712000000
H	   0.0613400000	  28.8658000000	  30.2051000000
H	  -0.6666600000	  28.5461000000	  31.8358000000
H	  -1.6952600000	  26.7433000000	  30.5792000000
H	  -0.9957600000	  25.2772000000	  30.2386000000
H	  -0.9148600000	  26.6700000000	  29.1752000000
H	   3.2670400000	  30.4399000000	  29.1157000000
N	   3.2461100000	  26.1166000000	  26.6094000000
S	   2.4632600000	  27.1482000000	  27.4232000000
O	   2.2388200000	  26.8196000000	  28.8433000000
O	   3.2681900000	  28.2426000000	  27.9062000000
C	   0.9673400000	  27.7856000000	  26.7292000000
F	   1.3440100000	  28.5061000000	  25.6818000000
F	   0.3436400000	  28.6474000000	  27.5696000000
F	   0.1987400000	  26.7289000000	  26.3093000000
S	   4.5548500000	  25.3141000000	  27.3762000000
O	   3.9471900000	  24.0446000000	  27.6889000000
O	   4.7400000000	  26.1633000000	  28.5286000000
C	   6.0505600000	  25.3369000000	  26.3252000000
F	   6.6202700000	  26.5562000000	  26.2492000000
F	   6.9714500000	  24.3559000000	  26.7267000000
F	   5.6850900000	  25.0534000000	  25.0485000000
N	   6.6458500000	  27.2041000000	  31.4704000000
S	   5.2679200000	  26.9981000000	  32.1031000000
O	   4.6807100000	  28.2400000000	  32.6246000000
O	   4.2970800000	  26.7461000000	  31.0139000000
C	   5.0894300000	  25.6666000000	  33.3237000000
F	   3.9146300000	  25.7261000000	  34.0407000000
F	   6.0774900000	  25.7208000000	  34.2405000000
F	   5.1841000000	  24.5243000000	  32.6660000000
S	   6.7447000000	  28.4793000000	  30.2820000000
O	   5.3819100000	  28.6668000000	  29.8124000000
O	   7.6253100000	  27.9261000000	  29.2837000000
C	   7.4162600000	  29.9206000000	  31.1092000000
F	   7.3528900000	  31.0363000000	  30.3979000000
F	   6.9317700000	  30.1910000000	  32.3613000000
F	   8.7264500000	  29.7905000000	  31.3839000000
