48

Mg	  18.2370000000	  28.2856000000	   4.1774600000
O	  18.9002000000	  29.6501000000	   5.4762500000
C	  19.4644000000	  30.9890000000	   5.3675900000
C	  19.3531000000	  29.0820000000	   6.7355400000
C	  18.6812000000	  27.7659000000	   7.0371400000
O	  18.2369000000	  27.2168000000	   5.7712200000
C	  17.7527000000	  25.8428000000	   6.0384300000
H	  19.5937000000	  31.5018000000	   6.3354900000
H	  18.7827000000	  31.5451000000	   4.7462200000
H	  19.1591000000	  29.7072000000	   7.6150000000
H	  20.4344000000	  28.8656000000	   6.6669200000
H	  17.8952000000	  27.9192000000	   7.7492700000
H	  19.4591000000	  27.0445000000	   7.4281000000
H	  16.9948000000	  26.1355000000	   6.8042600000
H	  18.6011000000	  25.1911000000	   6.5057400000
H	  17.3345000000	  25.3291000000	   5.1781100000
H	  20.4504000000	  30.8912000000	   4.8197800000
O	  18.2300000000	  29.7362000000	   2.4498600000
C	  19.0517000000	  30.0262000000	   1.2809500000
C	  17.0345000000	  30.5075000000	   2.4001600000
C	  16.3079000000	  30.3957000000	   3.6834700000
O	  16.5519000000	  29.1251000000	   4.3914500000
C	  15.3951000000	  28.7408000000	   5.2328900000
H	  18.5141000000	  29.7241000000	   0.3925700000
H	  19.9864000000	  29.5742000000	   1.3168100000
H	  16.4960000000	  30.1556000000	   1.5287000000
H	  17.2070000000	  31.6533000000	   2.4064600000
H	  15.2521000000	  30.5656000000	   3.5864900000
H	  16.6831000000	  31.2103000000	   4.3441500000
H	  14.4638000000	  28.7753000000	   4.6604300000
H	  15.4510000000	  29.5116000000	   6.0550000000
H	  15.5814000000	  27.7439000000	   5.6783900000
H	  19.2184000000	  31.0702000000	   1.2917600000
N	  19.5012000000	  26.9314000000	   2.2775700000
S	  20.5738000000	  26.8993000000	   3.3259600000
O	  19.9248000000	  28.0402000000	   3.8757900000
O	  20.6381000000	  25.8293000000	   4.3330900000
C	  22.2444000000	  27.5917000000	   3.0638600000
F	  22.1546000000	  28.9244000000	   2.8678700000
F	  22.9075000000	  27.1493000000	   1.9939900000
F	  22.9513000000	  27.4053000000	   4.2216600000
S	  18.1728000000	  25.8868000000	   2.3025500000
O	  17.5435000000	  27.0181000000	   3.0513600000
O	  18.5136000000	  24.6498000000	   2.9904200000
C	  17.8265000000	  25.7020000000	   0.5339700000
F	  17.6385000000	  26.9083000000	  -0.0676300000
F	  18.8874000000	  25.1632000000	  -0.0689300000
F	  16.7290000000	  24.8283000000	   0.3095700000
