63

Mg	  15.0441000000	  12.7511000000	  15.9867000000
O	  14.8852000000	  11.6623000000	  14.3933000000
O	  16.4230000000	  11.2784000000	  16.1445000000
C	  15.7182000000	  10.5208000000	  14.1344000000
C	  16.9678000000	  10.6754000000	  14.9712000000
C	  13.8967000000	  11.6156000000	  13.3842000000
C	  17.1173000000	  10.7322000000	  17.2719000000
H	  15.1667000000	   9.6003800000	  14.4708000000
H	  15.9482000000	  10.3970000000	  13.0929000000
H	  17.3447000000	   9.5854600000	  15.0378000000
H	  17.7529000000	  11.3261000000	  14.6000000000
H	  14.3117000000	  11.8204000000	  12.3595000000
H	  13.3280000000	  10.6875000000	  13.2934000000
H	  13.0865000000	  12.2868000000	  13.6793000000
H	  16.8989000000	  11.0608000000	  18.2758000000
H	  16.9310000000	   9.6772500000	  17.4157000000
H	  18.2107000000	  10.9263000000	  17.1289000000
O	  16.4632000000	  13.7854000000	  15.0317000000
O	  15.7740000000	  13.5942000000	  17.5690000000
C	  17.4107000000	  14.3882000000	  15.9838000000
C	  16.7834000000	  14.6222000000	  17.3000000000
C	  17.0282000000	  13.8912000000	  13.6883000000
C	  15.0800000000	  13.8952000000	  18.7768000000
H	  18.2374000000	  13.6935000000	  16.0843000000
H	  17.8357000000	  15.2179000000	  15.4360000000
H	  17.3967000000	  14.7522000000	  18.2065000000
H	  16.1562000000	  15.5123000000	  17.2216000000
H	  18.1370000000	  13.9344000000	  13.8299000000
H	  16.8209000000	  13.0189000000	  13.0637000000
H	  16.6118000000	  14.8124000000	  13.1704000000
H	  14.1051000000	  13.3945000000	  18.8874000000
H	  15.6885000000	  13.6937000000	  19.6707000000
H	  14.7962000000	  15.0246000000	  18.7495000000
N	  11.5027000000	  14.7330000000	  14.5195000000
S	  10.1649000000	  15.3961000000	  14.4141000000
O	  10.2624000000	  16.7854000000	  14.2129000000
O	   9.1700900000	  14.6433000000	  13.6526000000
C	   9.5226400000	  15.0537000000	  16.1261000000
F	  10.5405000000	  14.9628000000	  16.9679000000
F	   8.8135100000	  13.9130000000	  16.0916000000
F	   8.7303900000	  15.9873000000	  16.5624000000
S	  12.8583000000	  15.2379000000	  15.1608000000
O	  13.9028000000	  14.2500000000	  15.2751000000
O	  12.7812000000	  16.2029000000	  16.2267000000
C	  13.4389000000	  16.3430000000	  13.7592000000
F	  12.5984000000	  17.2986000000	  13.5167000000
F	  14.7524000000	  16.7754000000	  13.8915000000
F	  13.4018000000	  15.6805000000	  12.6828000000
N	  12.8805000000	  10.0564000000	  18.8156000000
S	  12.8006000000	  10.6223000000	  17.3956000000
O	  13.7710000000	  11.6258000000	  16.9955000000
O	  12.4114000000	   9.7103500000	  16.3760000000
C	  11.2945000000	  11.5835000000	  17.7065000000
F	  11.5470000000	  12.5042000000	  18.6289000000
F	  10.3168000000	  10.8406000000	  18.0998000000
F	  10.9329000000	  12.3301000000	  16.7304000000
S	  14.0541000000	   9.7881900000	  19.7523000000
O	  14.7110000000	  11.0238000000	  20.2372000000
O	  14.9083000000	   8.7275600000	  19.2595000000
C	  13.2466000000	   8.9764300000	  21.2026000000
F	  12.4502000000	   9.8329300000	  21.8640000000
F	  12.5223000000	   7.9567400000	  20.8306000000
F	  14.1819000000	   8.4036900000	  22.0592000000
