48

Mg	  27.0751000000	  22.7022000000	  32.7106000000
O	  28.9817000000	  23.5780000000	  32.4385000000
C	  29.7343000000	  24.7816000000	  32.5909000000
C	  29.8615000000	  22.5601000000	  32.0292000000
C	  29.4957000000	  21.3221000000	  32.8503000000
O	  28.0803000000	  21.1376000000	  32.9677000000
C	  27.7783000000	  19.8819000000	  33.6960000000
H	  30.4287000000	  24.5993000000	  33.4593000000
H	  29.1653000000	  25.5795000000	  33.0385000000
H	  30.9178000000	  22.8790000000	  32.2478000000
H	  29.8465000000	  22.3242000000	  31.0039000000
H	  29.8275000000	  21.5014000000	  33.8944000000
H	  29.9369000000	  20.4593000000	  32.4399000000
H	  28.0490000000	  19.0623000000	  33.0076000000
H	  26.7006000000	  19.9149000000	  33.9612000000
H	  28.2511000000	  19.8198000000	  34.6342000000
H	  30.3814000000	  24.9677000000	  31.6950000000
O	  26.9059000000	  22.6464000000	  30.8047000000
C	  27.2508000000	  21.6839000000	  29.7628000000
C	  26.6742000000	  23.9166000000	  30.1343000000
C	  25.9386000000	  24.7886000000	  31.0931000000
O	  26.4656000000	  24.6279000000	  32.4086000000
C	  26.1356000000	  25.7215000000	  33.2298000000
H	  26.5012000000	  21.6202000000	  29.0078000000
H	  27.2030000000	  20.6672000000	  30.2472000000
H	  26.0581000000	  23.8744000000	  29.2417000000
H	  27.6316000000	  24.4166000000	  29.9204000000
H	  24.8197000000	  24.5978000000	  31.0319000000
H	  26.1066000000	  25.7899000000	  30.7786000000
H	  25.0323000000	  25.9477000000	  33.1606000000
H	  26.8124000000	  26.4865000000	  32.9131000000
H	  26.2294000000	  25.6367000000	  34.2749000000
H	  28.2426000000	  21.9684000000	  29.3844000000
N	  25.8599000000	  21.8447000000	  35.1890000000
S	  26.7580000000	  22.9798000000	  35.7411000000
O	  27.4526000000	  23.1148000000	  34.4827000000
O	  26.0955000000	  24.1903000000	  36.0984000000
C	  28.0269000000	  22.3280000000	  36.8881000000
F	  27.5307000000	  21.5584000000	  37.8905000000
F	  28.7384000000	  23.3119000000	  37.4870000000
F	  28.8652000000	  21.5806000000	  36.1938000000
S	  24.5665000000	  22.1830000000	  34.1625000000
O	  25.3929000000	  22.1982000000	  32.9875000000
O	  24.0679000000	  23.4654000000	  34.5978000000
C	  23.2797000000	  20.8570000000	  34.2168000000
F	  22.6369000000	  20.8498000000	  35.3432000000
F	  22.3621000000	  21.1071000000	  33.2736000000
F	  23.8454000000	  19.6755000000	  33.9009000000
