47

Mg	   9.4364300000	  33.1912000000	  11.0877000000
O	   9.0317000000	  33.0207000000	   9.2790400000
C	   8.7077700000	  31.8722000000	   8.4731400000
C	   8.3172700000	  34.1301000000	   8.7390700000
C	   8.6827200000	  35.3648000000	   9.6086100000
O	   8.5560500000	  34.8675000000	  10.9624000000
C	   8.2554100000	  35.9344000000	  11.9298000000
H	   9.0397500000	  32.0912000000	   7.4551400000
H	   7.5737700000	  31.7500000000	   8.5368400000
H	   7.2284800000	  33.8915000000	   8.7561300000
H	   8.5537000000	  34.2914000000	   7.6717500000
H	   7.9256300000	  36.1046000000	   9.3686700000
H	   9.6124500000	  35.8611000000	   9.3369400000
H	   7.5136500000	  36.5388000000	  11.4315000000
H	   9.0991100000	  36.4973000000	  12.0733000000
H	   7.8554900000	  35.5480000000	  12.8775000000
H	   9.3493000000	  31.0648000000	   8.8251400000
N	  12.3626000000	  33.8803000000	  12.5230000000
S	  12.2804000000	  34.6208000000	  11.1556000000
O	  11.1624000000	  33.9803000000	  10.5787000000
O	  12.1816000000	  35.9988000000	  11.4243000000
C	  13.6878000000	  34.1128000000	  10.1962000000
F	  14.8780000000	  34.2934000000	  10.8830000000
F	  13.8306000000	  34.7738000000	   8.9958000000
F	  13.7054000000	  32.8066000000	   9.9038100000
S	  11.1067000000	  33.9908000000	  13.7224000000
O	  10.1087000000	  33.3888000000	  12.8292000000
O	  10.9623000000	  35.4233000000	  13.9901000000
C	  11.5149000000	  32.8950000000	  14.9885000000
F	  12.7120000000	  33.2346000000	  15.4361000000
F	  10.5872000000	  33.0052000000	  15.9644000000
F	  11.4059000000	  31.6202000000	  14.6137000000
N	   9.2119300000	  30.3020000000	  13.0053000000
S	  10.0792000000	  30.1166000000	  11.7032000000
O	   9.3092600000	  29.2557000000	  10.8235000000
O	  10.2223000000	  31.4526000000	  11.1081000000
C	  11.6221000000	  29.3087000000	  11.8235000000
F	  12.6435000000	  30.1541000000	  12.1557000000
F	  12.0205000000	  28.7770000000	  10.6605000000
F	  11.5644000000	  28.3283000000	  12.6854000000
S	   7.7927000000	  31.4191000000	  12.9682000000
O	   7.9761600000	  32.3384000000	  11.8154000000
O	   7.8617600000	  31.9351000000	  14.3353000000
C	   6.3759400000	  30.2944000000	  12.6962000000
F	   6.1538700000	  30.1586000000	  11.3212000000
F	   6.6032800000	  29.0490000000	  13.1458000000
F	   5.3109200000	  30.7353000000	  13.3799000000
