63

Mg	   5.9639600000	  34.4730000000	   3.4912200000
O	   7.5066700000	  35.4099000000	   4.2997200000
O	   7.0752400000	  32.9540000000	   3.9019500000
C	   8.5322000000	  34.6743000000	   4.9569700000
C	   8.2081900000	  33.1638000000	   4.6833700000
C	   7.7452100000	  36.8390000000	   4.4752800000
C	   6.7565700000	  31.5532000000	   3.8068100000
H	   9.4408800000	  34.8487000000	   4.4913800000
H	   8.7295500000	  34.9658000000	   5.9933700000
H	   8.9724300000	  32.7193000000	   4.0758500000
H	   8.1529600000	  32.5219000000	   5.6129800000
H	   8.7485600000	  37.1502000000	   4.2557500000
H	   7.1474000000	  37.4222000000	   3.8470400000
H	   7.6296400000	  37.1469000000	   5.5389500000
H	   6.2866100000	  31.4496000000	   2.8323900000
H	   7.5796300000	  30.8727000000	   3.7476700000
H	   6.0454800000	  31.0844000000	   4.4771200000
O	   4.4623300000	  33.4323000000	   2.6827600000
O	   5.0108500000	  34.0758000000	   5.0814400000
C	   3.6531200000	  32.7217000000	   3.5521400000
C	   3.6754400000	  33.5641000000	   4.8836000000
C	   4.1107600000	  33.1713000000	   1.3235900000
C	   5.1425900000	  34.9168000000	   6.2171900000
H	   2.5588300000	  32.6257000000	   3.2425000000
H	   4.0558300000	  31.7028000000	   3.6576200000
H	   3.0910400000	  34.5079000000	   4.7513100000
H	   3.2969800000	  33.0460000000	   5.7388100000
H	   3.8053700000	  32.1430000000	   1.0433000000
H	   3.1732300000	  33.6939000000	   1.2313700000
H	   4.7460900000	  33.5511000000	   0.4712220000
H	   6.0683200000	  35.5326000000	   6.2070800000
H	   4.3874000000	  35.6314000000	   6.3436600000
H	   5.1403200000	  34.3231000000	   7.1359300000
N	   5.3986400000	  38.2981000000	   2.1822000000
S	   5.3408600000	  39.9173000000	   2.0363500000
O	   5.8322700000	  40.2620000000	   0.7516230000
O	   4.1440500000	  40.6013000000	   2.5150700000
C	   6.6369200000	  40.3863000000	   3.1356000000
F	   7.8359600000	  39.9177000000	   2.8304200000
F	   6.3509300000	  40.0098000000	   4.3984200000
F	   6.7817500000	  41.7150000000	   3.1492900000
S	   4.4385600000	  37.4726000000	   2.9440500000
O	   4.1092800000	  38.0814000000	   4.2616600000
O	   4.8704100000	  36.0878000000	   2.9536700000
C	   2.8936000000	  37.5500000000	   1.9512100000
F	   1.9384000000	  36.8259000000	   2.4808300000
F	   2.3470300000	  38.8243000000	   1.8100500000
F	   3.0386600000	  37.0530000000	   0.6932240000
N	   7.7526300000	  34.8630000000	  -0.7736488362
S	   8.0306300000	  35.0943000000	   0.7570760000
O	   8.6470000000	  36.3702000000	   1.0433200000
O	   6.9792800000	  34.6639000000	   1.6360500000
C	   9.3416000000	  33.9769000000	   1.0729000000
F	  10.6035000000	  34.4342000000	   0.7008840000
F	   9.1385100000	  32.8467000000	   0.4839160000
F	   9.3733500000	  33.7597000000	   2.3799100000
S	   7.6301100000	  35.8615000000	  -2.0041488362
O	   7.2824200000	  35.2187000000	  -3.2442488362
O	   8.5100200000	  36.9768000000	  -2.0837488362
C	   6.0163300000	  36.6835000000	  -1.5873488362
F	   5.4546400000	  37.0698000000	  -2.7089488362
F	   5.0770000000	  36.0312000000	  -0.8782488362
F	   6.3055400000	  37.8130000000	  -0.9738488362
