47

Mg	  16.4579000000	  42.6320000000	  13.9926000000
O	  17.0021000000	  41.0947000000	  13.0194000000
C	  18.2574000000	  40.4233000000	  13.0710000000
C	  16.0195000000	  40.3157000000	  12.3248000000
C	  14.7081000000	  41.1153000000	  12.2851000000
O	  14.7608000000	  42.0965000000	  13.3112000000
C	  13.5720000000	  42.8608000000	  13.4222000000
H	  18.0799000000	  39.3958000000	  12.9901000000
H	  18.7698000000	  40.5783000000	  13.9866000000
H	  15.8140000000	  39.4052000000	  12.8501000000
H	  16.4817000000	  40.1126000000	  11.3406000000
H	  13.8014000000	  40.4324000000	  12.4527000000
H	  14.6008000000	  41.7091000000	  11.3645000000
H	  13.5506000000	  43.5449000000	  14.2483000000
H	  12.7832000000	  42.1436000000	  13.5787000000
H	  13.3436000000	  43.4543000000	  12.5162000000
H	  18.8830000000	  40.5772000000	  12.1625000000
N	  15.2134000000	  42.7447000000	  17.3002000000
S	  16.1272000000	  41.5756000000	  16.8838000000
O	  16.2009000000	  41.4615000000	  15.4368000000
O	  17.4461000000	  41.9668000000	  17.2795000000
C	  15.6975000000	  40.0229000000	  17.6903000000
F	  15.6615000000	  40.0773000000	  18.9572000000
F	  16.5600000000	  39.0668000000	  17.3209000000
F	  14.5027000000	  39.6164000000	  17.2700000000
S	  15.2654000000	  44.3080000000	  16.4074000000
O	  13.8067000000	  44.5375000000	  16.3652000000
O	  15.9094000000	  43.9725000000	  15.1319000000
C	  16.1796000000	  45.4437000000	  17.5166000000
F	  17.5150000000	  45.1370000000	  17.6163000000
F	  16.3366000000	  46.6691000000	  17.0439000000
F	  15.5878000000	  45.5535000000	  18.7248000000
N	  18.7694000000	  45.0124000000	  13.1475000000
S	  17.9316000000	  44.4041000000	  11.9962000000
O	  18.6296000000	  43.1603000000	  11.6835000000
O	  16.7290000000	  43.7809000000	  12.5135000000
C	  17.6660000000	  45.4330000000	  10.4995000000
F	  18.8228000000	  45.9587000000	  10.0490000000
F	  16.7156000000	  46.4245000000	  10.7115000000
F	  17.2206000000	  44.5710000000	   9.5851900000
S	  19.2475000000	  43.9696000000	  14.4957000000
O	  18.2624000000	  42.8857000000	  14.4479000000
O	  19.2893000000	  44.8756000000	  15.6497000000
C	  20.9956000000	  43.3463000000	  14.3038000000
F	  21.7746000000	  44.3285000000	  13.7777000000
F	  21.5301000000	  42.9708000000	  15.4936000000
F	  21.1457000000	  42.2265000000	  13.5178000000
