64

Mg	  24.9221000000	   4.0449000000	  41.7211000000
O	  26.8214000000	   4.1552000000	  42.2410000000
O	  25.2993000000	   5.9032600000	  41.0392000000
C	  27.5464000000	   5.2676000000	  41.7146000000
C	  26.5644000000	   6.4099200000	  41.5060000000
C	  27.7201000000	   3.0487800000	  42.3966000000
C	  24.4355000000	   6.9452400000	  40.5251000000
H	  28.4057000000	   5.6157300000	  42.2393000000
H	  27.8554000000	   5.0569100000	  40.7150000000
H	  26.2566000000	   6.9044000000	  42.3813000000
H	  26.8951000000	   7.0701400000	  40.6647000000
H	  28.7280000000	   3.3318400000	  42.1763000000
H	  27.6785000000	   2.8116300000	  43.4074000000
H	  27.5126000000	   2.1985100000	  41.7403000000
H	  24.9197000000	   7.1916900000	  39.6041000000
H	  23.4401000000	   6.6301700000	  40.2920000000
H	  24.3861000000	   7.7818500000	  41.2424000000
O	  24.5032000000	   5.0558900000	  43.4567000000
O	  22.9553000000	   4.3891400000	  41.5749000000
C	  23.2481000000	   5.7317100000	  43.5878000000
C	  22.2940000000	   5.0546200000	  42.6760000000
C	  25.1755000000	   5.2091600000	  44.7198000000
C	  22.0038000000	   3.6005400000	  40.8659000000
H	  22.8995000000	   5.9142000000	  44.6130000000
H	  23.4317000000	   6.7104900000	  43.2048000000
H	  21.8859000000	   4.2267300000	  43.2500000000
H	  21.5274000000	   5.7581700000	  42.3035000000
H	  24.5176000000	   4.9294700000	  45.5962000000
H	  25.9282000000	   4.5484000000	  44.9268000000
H	  25.6723000000	   6.1614500000	  44.7845000000
H	  21.5234000000	   2.9026600000	  41.6222000000
H	  21.3203000000	   4.2597800000	  40.3858000000
H	  22.4350000000	   2.8907800000	  40.2176000000
O	  25.5036000000	   3.2480200000	  39.9926000000
O	  23.6277000000	   4.6310600000	  38.5345000000
C	  25.9920000000	   3.9066900000	  38.7693000000
C	  24.7804000000	   4.2198000000	  37.7831000000
C	  25.2858000000	   1.8200500000	  39.8757000000
C	  22.7212000000	   5.2660400000	  37.6672000000
H	  26.3646000000	   4.8463800000	  39.1207000000
H	  26.7837000000	   3.3095700000	  38.2228000000
H	  25.1644000000	   5.1133000000	  37.2080000000
H	  24.5598000000	   3.3738900000	  37.1299000000
H	  25.5470000000	   1.2635500000	  40.7441000000
H	  24.2568000000	   1.6158000000	  39.6174000000
H	  25.8794000000	   1.3686400000	  39.0682000000
H	  22.5652000000	   4.6092900000	  36.8113000000
H	  21.7621000000	   5.4138000000	  38.2321000000
H	  23.1004000000	   6.2808200000	  37.4517000000
N	  25.9310000000	   0.1901511638	  43.2063000000
S	  26.5875000000	  -0.9697488362	  43.9666000000
O	  26.2128000000	  -1.2339488362	  45.3335000000
O	  26.8175000000	  -2.1135488362	  43.0890000000
C	  28.2786000000	  -0.3649488362	  44.2476000000
F	  29.0280000000	  -0.4152488362	  43.1753000000
F	  28.9026000000	  -0.9027488362	  45.2733000000
F	  28.2741000000	   0.9018080000	  44.5990000000
S	  24.6509000000	   1.0578900000	  43.5884000000
O	  24.5997000000	   2.2815500000	  42.8106000000
O	  24.3178000000	   1.2325700000	  44.9465000000
C	  23.3392000000	   0.1012511638	  42.8370000000
F	  22.2333000000	   0.8103460000	  42.6131000000
F	  23.6977000000	  -0.3827488362	  41.7006000000
F	  23.0199000000	  -0.9047488362	  43.5808000000
