48

Mg	  41.8074000000	  24.0117000000	  35.4850000000
O	  40.6485000000	  24.8366000000	  36.7174000000
C	  40.9041000000	  25.2222000000	  38.1083000000
C	  39.2351000000	  24.9032000000	  36.2855000000
C	  39.0453000000	  24.6809000000	  34.8249000000
O	  40.1526000000	  23.8262000000	  34.3515000000
C	  39.8620000000	  23.3082000000	  33.0544000000
H	  41.8270000000	  24.8440000000	  38.6292000000
H	  40.1070000000	  24.7697000000	  38.6084000000
H	  38.6740000000	  25.7428000000	  36.5947000000
H	  38.6940000000	  24.0211000000	  36.6974000000
H	  39.1676000000	  25.6396000000	  34.2819000000
H	  37.9616000000	  24.3068000000	  34.6524000000
H	  38.8790000000	  22.7654000000	  33.0922000000
H	  40.5870000000	  22.6359000000	  32.5768000000
H	  39.7005000000	  24.1484000000	  32.3479000000
H	  40.7218000000	  26.2675000000	  38.1293000000
O	  41.7540000000	  22.4044000000	  36.4535000000
C	  42.9489000000	  21.8321000000	  37.1712000000
C	  40.6915000000	  21.4597000000	  36.4565000000
C	  41.0063000000	  20.2903000000	  35.4760000000
O	  41.5141000000	  20.8643000000	  34.1412000000
C	  42.1478000000	  20.0436000000	  33.0277000000
H	  42.7597000000	  21.6081000000	  38.2346000000
H	  43.7832000000	  22.4504000000	  36.9767000000
H	  39.7244000000	  21.9162000000	  36.0766000000
H	  40.4423000000	  21.0035000000	  37.4454000000
H	  40.1096000000	  19.6644000000	  35.1905000000
H	  41.7190000000	  19.5936000000	  35.9643000000
H	  41.3867000000	  19.4472000000	  32.5464000000
H	  42.8875000000	  19.4437000000	  33.4088000000
H	  42.5314000000	  20.8102000000	  32.3474000000
H	  43.1467000000	  20.8195000000	  36.6714000000
N	  44.4802000000	  25.3191000000	  34.0178000000
S	  43.6290000000	  25.9127000000	  35.1465000000
O	  42.2179000000	  25.7682000000	  34.9108000000
O	  43.4326000000	  24.8280000000	  36.1010000000
C	  44.2366000000	  27.2605000000	  36.1301000000
F	  44.4371000000	  28.3636000000	  35.3220000000
F	  45.4018000000	  27.0438000000	  36.8448000000
F	  43.3060000000	  27.6071000000	  37.0526000000
S	  43.8714000000	  23.8828000000	  33.2326000000
O	  43.5468000000	  24.1661000000	  31.8328000000
O	  42.6694000000	  23.4592000000	  34.0063000000
C	  45.1776000000	  22.6447000000	  33.2640000000
F	  45.5248000000	  22.3158000000	  34.5349000000
F	  44.7181000000	  21.4888000000	  32.7424000000
F	  46.2992000000	  23.0724000000	  32.6558000000
