47

Mg	  36.1486000000	  15.7786000000	  29.0052000000
O	  34.5082000000	  15.3866000000	  29.7491000000
C	  33.8562000000	  15.5110000000	  31.0462000000
C	  33.6862000000	  14.4800000000	  28.8857000000
C	  34.1811000000	  14.4921000000	  27.4267000000
O	  35.5795000000	  14.2259000000	  27.4722000000
C	  36.1379000000	  13.8684000000	  26.2186000000
H	  33.4068000000	  14.5813000000	  31.3887000000
H	  33.0699000000	  16.2500000000	  30.9180000000
H	  32.6663000000	  14.8044000000	  28.8654000000
H	  33.6513000000	  13.4729000000	  29.2787000000
H	  33.9365000000	  15.3646000000	  26.8606000000
H	  33.7394000000	  13.6756000000	  26.9714000000
H	  35.6056000000	  12.8876000000	  25.9332000000
H	  37.1821000000	  13.7276000000	  26.2504000000
H	  35.8062000000	  14.6680000000	  25.5696000000
H	  34.6558000000	  15.8357000000	  31.7271000000
N	  37.1573000000	  15.3634000000	  32.1479000000
S	  37.5902000000	  16.6948000000	  31.4319000000
O	  38.8341000000	  16.6490000000	  30.8172000000
O	  36.7387000000	  16.8587000000	  30.2892000000
C	  37.5205000000	  18.1631000000	  32.5804000000
F	  36.4592000000	  18.1093000000	  33.3004000000
F	  37.4423000000	  19.4275000000	  32.0524000000
F	  38.5295000000	  18.1328000000	  33.4343000000
S	  37.0585000000	  13.8717000000	  31.3716000000
O	  36.7656000000	  14.2729000000	  29.9807000000
O	  36.0765000000	  13.1003000000	  32.1520000000
C	  38.6879000000	  13.0776000000	  31.4628000000
F	  38.7268000000	  11.8286000000	  31.1035000000
F	  39.5240000000	  13.6850000000	  30.6273000000
F	  39.4297000000	  13.3189000000	  32.5599000000
N	  37.5086000000	  16.9946000000	  26.2311000000
S	  38.4853000000	  16.7296000000	  27.3639000000
O	  38.6589000000	  17.8238000000	  28.2602000000
O	  37.7399000000	  15.7249000000	  28.0369000000
C	  40.0548000000	  16.0482000000	  26.8414000000
F	  40.8205000000	  17.0159000000	  26.2795000000
F	  39.8451000000	  15.0745000000	  25.9065000000
F	  40.7682000000	  15.5106000000	  27.8316000000
S	  36.0724000000	  17.9190000000	  26.7286000000
O	  35.6291000000	  17.1076000000	  27.8819000000
O	  35.2064000000	  17.6687000000	  25.6035000000
C	  36.2285000000	  19.6664000000	  27.1181000000
F	  36.6827000000	  19.9804000000	  28.3483000000
F	  37.0412000000	  20.2334000000	  26.2557000000
F	  35.0225000000	  20.2768000000	  26.9713000000
