49

Mg	   5.0178900000	  46.2429000000	  16.4940000000
O	   4.2175500000	  47.3799000000	  17.8481000000
C	   4.2375400000	  47.1202000000	  19.3196000000
C	   3.2972600000	  48.3907000000	  17.3965000000
C	   3.6611400000	  48.6921000000	  15.9091000000
O	   4.4184000000	  47.5165000000	  15.3665000000
C	   4.7300300000	  47.7455000000	  14.0050000000
H	   3.2812800000	  46.7763000000	  19.7447000000
H	   4.5841800000	  48.0415000000	  19.7383000000
H	   3.4026700000	  49.3585300000	  17.8554000000
H	   2.2559300000	  48.0012000000	  17.4676000000
H	   4.2047000000	  49.6160800000	  15.7843000000
H	   2.7495900000	  48.9414200000	  15.3071000000
H	   5.0953600000	  48.7475000000	  13.8914000000
H	   3.8931100000	  47.5218000000	  13.4095000000
H	   5.4423900000	  46.9986000000	  13.6158000000
H	   5.0871900000	  46.4546000000	  19.5244000000
O	   6.7139300000	  47.0309000000	  16.9753000000
C	   7.2970700000	  48.3050000000	  16.5076000000
C	   7.5029400000	  46.3425000000	  17.9510000000
C	   7.0559600000	  44.9187000000	  17.8637000000
O	   5.5785000000	  44.8797000000	  17.7702000000
C	   5.0094500000	  43.6697000000	  18.2200000000
H	   6.5541100000	  48.7575000000	  15.8744000000
H	   8.1892700000	  48.1340000000	  15.8662000000
H	   7.0948500000	  46.6141000000	  18.9001000000
H	   8.6534400000	  46.5339000000	  17.9316000000
H	   7.3877100000	  44.3877000000	  18.8001000000
H	   7.5970500000	  44.5203000000	  17.0451000000
H	   5.4868600000	  43.3730000000	  19.1621000000
H	   5.1640800000	  42.9027000000	  17.4495000000
H	   3.9237400000	  43.8264000000	  18.3106000000
H	   7.5760500000	  49.0235300000	  17.3135000000
O	   5.7950200000	  45.0719000000	  15.1856000000
C	   7.0444400000	  45.1095000000	  14.5520000000
C	   4.9278600000	  43.9379000000	  14.8569000000
C	   3.5291100000	  44.4757000000	  15.0905000000
O	   3.3588500000	  45.3148000000	  16.2681000000
C	   1.9471900000	  45.4093000000	  16.5398000000
H	   7.5250400000	  46.0175000000	  14.9167000000
H	   6.8411500000	  45.3621000000	  13.4913000000
H	   5.1479800000	  43.0299000000	  15.4281000000
H	   4.9832400000	  43.6606000000	  13.7508000000
H	   2.9100200000	  43.5800000000	  15.1805000000
H	   3.1073000000	  45.0418000000	  14.2710000000
H	   1.5978400000	  46.0849000000	  15.7812000000
H	   1.8340700000	  45.7925000000	  17.5322000000
H	   1.3704800000	  44.4813000000	  16.4663000000
H	   7.6890700000	  44.2638000000	  14.7834000000
