63

Mg	  19.4720000000	  25.8949000000	  12.6780000000
O	  21.2788000000	  25.4802000000	  13.3065000000
O	  19.6312000000	  27.6705000000	  13.4600000000
C	  21.4506000000	  26.3740000000	  14.4589000000
C	  20.9504000000	  27.7716000000	  14.0079000000
C	  22.5339000000	  25.1872000000	  12.8168000000
C	  19.2640000000	  28.9128000000	  12.8689000000
H	  20.7384000000	  26.0766000000	  15.2657000000
H	  22.4839000000	  26.4405000000	  14.8185000000
H	  21.1198000000	  28.4710000000	  14.8461000000
H	  21.5420000000	  28.2503000000	  13.2669000000
H	  22.5083000000	  24.6145000000	  11.8887000000
H	  23.0370000000	  26.0824000000	  12.4502000000
H	  23.1397000000	  24.6736000000	  13.5795000000
H	  19.0579000000	  29.6019000000	  13.6307000000
H	  20.0262000000	  29.2315000000	  12.2125000000
H	  18.3379000000	  28.7784000000	  12.3539000000
O	  18.7493000000	  25.0300000000	  14.2679000000
O	  19.4299000000	  23.9711000000	  11.8056000000
C	  18.8227000000	  23.5695000000	  14.2524000000
C	  19.5909000000	  23.0787000000	  12.9022000000
C	  18.1564000000	  25.6425000000	  15.3925000000
C	  19.7267000000	  23.2510000000	  10.6033000000
H	  19.3203000000	  23.2840000000	  15.1407000000
H	  17.7736000000	  23.2487000000	  14.2139000000
H	  20.6688000000	  22.9404000000	  13.1368000000
H	  19.3206000000	  21.9967000000	  12.6290000000
H	  17.9336000000	  26.6743000000	  15.2578000000
H	  17.2809000000	  25.0049000000	  15.6563000000
H	  18.8888000000	  25.6673000000	  16.2392000000
H	  20.2120000000	  23.8228000000	   9.8330400000
H	  20.2640000000	  22.3225000000	  10.6346000000
H	  18.7257000000	  23.1022000000	  10.1481000000
N	  20.2162000000	  26.7316000000	   8.3770500000
S	  18.6873000000	  27.1307000000	   8.2088200000
O	  17.8672000000	  25.9911000000	   7.7771100000
O	  18.2706000000	  28.0979000000	   9.1744700000
C	  18.8956000000	  28.1887000000	   6.7701200000
F	  19.7577000000	  29.1962000000	   6.9324100000
F	  17.7310000000	  28.7140000000	   6.3919100000
F	  19.3086000000	  27.5284000000	   5.6686200000
S	  21.1273000000	  26.7577000000	   9.5846300000
O	  22.4136000000	  26.0641000000	   9.3756100000
O	  20.4705000000	  26.4879000000	  10.8802000000
C	  21.6368000000	  28.4826000000	   9.6843700000
F	  22.5850000000	  28.7520000000	  10.6595000000
F	  22.1471000000	  28.8711000000	   8.5369600000
F	  20.6016000000	  29.2541000000	  10.0173000000
N	  15.6150000000	  25.9266000000	  10.2359000000
S	  14.2397000000	  25.8979000000	   9.6453500000
O	  14.0423000000	  24.8222000000	   8.6462300000
O	  13.1674000000	  26.0094000000	  10.5754000000
C	  14.0846000000	  27.3621000000	   8.6242000000
F	  12.8616000000	  27.4687000000	   8.1779800000
F	  14.9442000000	  27.4133000000	   7.6511900000
F	  14.2249000000	  28.4633000000	   9.2978900000
S	  16.1192000000	  26.0783000000	  11.6984000000
O	  17.5657000000	  26.2085000000	  11.7233000000
O	  15.5230000000	  25.1081000000	  12.6164000000
C	  15.5164000000	  27.7625000000	  12.2482000000
F	  14.2143000000	  27.8508000000	  12.2711000000
F	  15.9346000000	  27.9383000000	  13.5058000000
F	  16.0099000000	  28.7672000000	  11.5746000000
