62

Mg	  18.8066000000	  14.2249000000	  33.6314000000
O	  18.6533000000	  12.9455000000	  32.1422000000
C	  19.5972000000	  12.9220000000	  31.0561000000
C	  18.3043000000	  11.6440000000	  32.7915000000
C	  17.1523000000	  11.9233000000	  33.7845000000
O	  17.4967000000	  13.1363000000	  34.3741000000
C	  16.4771000000	  13.4699000000	  35.3557000000
H	  19.4067000000	  12.0845000000	  30.3527000000
H	  20.5734000000	  12.6423000000	  31.4741000000
H	  19.0912000000	  11.2848000000	  33.3971000000
H	  18.0465000000	  10.8053000000	  32.0936000000
H	  17.0831000000	  11.0452000000	  34.4445000000
H	  16.2257000000	  12.0809000000	  33.1666000000
H	  16.6288000000	  14.5549000000	  35.5641000000
H	  16.5088000000	  12.8095000000	  36.2507000000
H	  15.4884000000	  13.4164000000	  34.9698000000
H	  19.7364000000	  13.8110000000	  30.4814000000
N	  16.9603000000	  17.2577000000	  31.6704000000
S	  16.3361000000	  15.9766000000	  32.2602000000
O	  17.4292000000	  15.1969000000	  32.8197000000
O	  15.6776000000	  16.4577000000	  33.4188000000
C	  15.0894000000	  14.9410000000	  31.5123000000
F	  13.8735000000	  15.5165000000	  31.5708000000
F	  14.9866000000	  13.8271000000	  32.2282000000
F	  15.2978000000	  14.6315000000	  30.2042000000
S	  16.3534000000	  17.9274000000	  30.2587000000
O	  16.2806000000	  19.3984000000	  30.5214000000
O	  14.9688000000	  17.4847000000	  29.9304000000
C	  17.4994000000	  17.3971000000	  29.0245000000
F	  17.6685000000	  16.0618000000	  28.9066000000
F	  17.0912000000	  17.8342000000	  27.8594000000
F	  18.6795000000	  17.9366000000	  29.2412000000
N	  19.8143000000	  11.9888000000	  36.1545000000
S	  20.1699000000	  11.1568000000	  37.4545000000
O	  19.4770000000	   9.8889600000	  37.4999000000
O	  21.5221000000	  11.0078000000	  37.7864000000
C	  19.3627000000	  12.0433000000	  38.8433000000
F	  18.9639000000	  11.2785000000	  39.8380000000
F	  18.2526000000	  12.6442000000	  38.4105000000
F	  20.1472000000	  13.0282000000	  39.3376000000
S	  21.1860000000	  12.5588000000	  35.3322000000
O	  21.7915000000	  13.6490000000	  36.1411000000
O	  20.2049000000	  13.1909000000	  34.4226000000
C	  22.3708000000	  11.4764000000	  34.5094000000
F	  23.1319000000	  12.1376000000	  33.6200000000
F	  23.1790000000	  10.7723000000	  35.3402000000
F	  21.7072000000	  10.4593000000	  33.8583000000
N	  20.9781000000	  16.6412000000	  34.4309000000
S	  19.6732000000	  16.5913000000	  35.2618000000
O	  18.6642000000	  17.3349000000	  34.6483000000
O	  19.0167000000	  15.3320000000	  35.0021000000
C	  19.8874000000	  16.8180000000	  37.0035000000
F	  20.6010000000	  15.8090000000	  37.4201000000
F	  18.7591000000	  16.6896000000	  37.7393000000
F	  20.6140000000	  17.8885000000	  37.2831000000
S	  20.9701000000	  16.2630000000	  32.7195000000
O	  20.4913000000	  17.3120000000	  31.8201000000
O	  20.1048000000	  15.0674000000	  32.7240000000
C	  22.7261000000	  15.6604000000	  32.4276000000
F	  22.6779000000	  14.9837000000	  31.2536000000
F	  23.6663000000	  16.6676000000	  32.3446000000
F	  23.1623000000	  14.7450000000	  33.2442000000
