63

Mg	  25.7546000000	   2.6133800000	  29.0085000000
O	  26.6960000000	   3.6811000000	  30.2963000000
O	  27.0638000000	   3.1599100000	  27.7616000000
C	  28.0414000000	   3.8855400000	  29.9367000000
C	  28.0070000000	   4.0005500000	  28.4493000000
C	  26.4980000000	   4.1170900000	  31.6268000000
C	  26.9507000000	   3.3269100000	  26.3162000000
H	  28.5142000000	   4.7940700000	  30.4682000000
H	  28.5699000000	   2.9429900000	  30.2596000000
H	  27.6645000000	   5.0104200000	  28.1710000000
H	  29.0003000000	   3.8551700000	  28.0930000000
H	  27.2412000000	   3.7790800000	  32.3388000000
H	  26.1850000000	   5.1930000000	  31.6276000000
H	  25.6098000000	   3.5586100000	  31.8888000000
H	  27.7394000000	   2.7162900000	  25.8293000000
H	  26.0847000000	   2.8967100000	  25.9456000000
H	  26.9572000000	   4.3737000000	  26.0378000000
O	  26.7013000000	   0.9013360000	  29.2149000000
O	  24.9788000000	   1.3178800000	  27.5832000000
C	  26.7463000000	   0.0187511638	  28.0946000000
C	  25.3957000000	  -0.0529488362	  27.4323000000
C	  26.9371000000	   0.1898511638	  30.4576000000
C	  23.7976000000	   1.4299100000	  26.8064000000
H	  27.4509000000	   0.5405470000	  27.4499000000
H	  27.2063000000	  -0.9568488362	  28.3307000000
H	  25.3278000000	  -0.4529488362	  26.4650000000
H	  24.8322000000	  -0.7746488362	  27.9907000000
H	  26.6183000000	   0.8400970000	  31.3128000000
H	  26.4220000000	  -0.7665488362	  30.5451000000
H	  28.0055000000	  -0.0252488362	  30.5480000000
H	  23.5370000000	   2.5167700000	  26.6323000000
H	  23.9969000000	   1.1147900000	  25.7851000000
H	  22.9915000000	   0.8540790000	  27.3193000000
N	  24.6267000000	   6.4791000000	  29.0869000000
S	  25.0759000000	   8.0031300000	  29.0576000000
O	  24.7045000000	   8.6629500000	  27.8642000000
O	  24.8724000000	   8.7233800000	  30.3252000000
C	  26.8839000000	   7.9049100000	  29.0217000000
F	  27.2841000000	   6.7730700000	  29.5470000000
F	  27.4066000000	   8.8205200000	  29.7877000000
F	  27.4106000000	   8.0216800000	  27.8240000000
S	  24.2905000000	   5.4725500000	  27.9692000000
O	  24.6285000000	   4.1420300000	  28.3850000000
O	  24.7829000000	   5.8048100000	  26.6758000000
C	  22.4767000000	   5.5547200000	  27.9365000000
F	  21.8720000000	   4.7246000000	  27.1414000000
F	  22.0074000000	   5.2554900000	  29.1425000000
F	  22.0480000000	   6.7524100000	  27.5293000000
N	  22.9932000000	  -0.1491488362	  29.5807000000
S	  23.1415000000	   1.0643300000	  30.5504000000
O	  24.3006000000	   1.8503600000	  30.1637000000
O	  21.9340000000	   1.6879200000	  31.0079000000
C	  23.7334000000	   0.1348511638	  32.0786000000
F	  24.2380000000	   1.0634300000	  32.9023000000
F	  24.6895000000	  -0.6995488362	  31.7493000000
F	  22.8184000000	  -0.6642488362	  32.6506000000
S	  21.9738000000	  -1.3495488362	  29.7025000000
O	  20.8488000000	  -1.2894488362	  30.6093000000
O	  22.5126000000	  -2.6293488362	  29.3454000000
C	  21.0748000000	  -1.0090488362	  28.1481000000
F	  20.6093000000	   0.3005511638	  28.0504000000
F	  21.8671000000	  -1.1246488362	  27.0983000000
F	  19.9868000000	  -1.8625488362	  27.9363000000
