47

Mg	  41.9680000000	  24.3212000000	  23.5896000000
O	  41.8690000000	  25.9527000000	  22.5599000000
C	  41.0147000000	  26.2470000000	  21.4679000000
C	  42.8307000000	  26.9569000000	  22.8807000000
C	  44.1315000000	  26.1766000000	  23.1693000000
O	  43.7019000000	  25.0762000000	  24.0582000000
C	  44.8846000000	  24.7033000000	  24.7975000000
H	  41.5805000000	  26.1395000000	  20.5229000000
H	  40.6368000000	  27.2922000000	  21.5653000000
H	  42.5049000000	  27.5060000000	  23.8148000000
H	  43.0098000000	  27.7201000000	  22.0299000000
H	  44.7056000000	  26.8379000000	  23.7008000000
H	  44.7374000000	  25.7316000000	  22.3238000000
H	  45.7753000000	  24.5590000000	  24.0785000000
H	  44.7134000000	  23.7782000000	  25.3401000000
H	  45.1643000000	  25.4695000000	  25.4914000000
H	  40.1899000000	  25.6226000000	  21.5920000000
N	  38.7234000000	  25.1491000000	  24.8608000000
S	  38.9701000000	  23.7545000000	  24.1628000000
O	  40.1409000000	  23.9630000000	  23.2407000000
O	  39.4152000000	  22.7880000000	  25.1182000000
C	  37.6523000000	  23.0179000000	  23.2256000000
F	  37.5692000000	  23.5411000000	  21.9427000000
F	  36.4887000000	  23.1854000000	  23.8568000000
F	  37.8221000000	  21.7107000000	  23.1581000000
S	  40.0944000000	  25.9229000000	  25.6173000000
O	  40.0629000000	  27.2499000000	  24.9662000000
O	  41.2741000000	  25.1710000000	  25.1017000000
C	  39.8027000000	  25.8795000000	  27.3877000000
F	  39.7892000000	  24.6031000000	  27.8097000000
F	  40.8559000000	  26.4089000000	  28.0682000000
F	  38.6155000000	  26.4299000000	  27.7500000000
N	  43.1010000000	  21.1652000000	  22.4347000000
S	  43.5253000000	  22.4644000000	  21.7688000000
O	  42.6099000000	  23.5458000000	  21.9027000000
O	  44.6221000000	  22.8522000000	  22.6183000000
C	  44.1856000000	  22.4076000000	  20.0461000000
F	  45.0524000000	  21.4385000000	  19.7655000000
F	  44.7362000000	  23.5822000000	  19.6682000000
F	  43.1887000000	  22.1988000000	  19.1917000000
S	  42.2595000000	  21.2867000000	  24.0080000000
O	  40.9352000000	  20.8961000000	  23.6054000000
O	  42.3651000000	  22.6982000000	  24.3622000000
C	  43.0356000000	  20.2057000000	  25.2382000000
F	  44.3681000000	  20.4318000000	  25.2742000000
F	  42.3550000000	  20.4237000000	  26.4194000000
F	  42.9956000000	  18.8453000000	  24.8812000000
