63

Mg	  18.6649000000	  42.7444000000	   8.9809600000
O	  17.8913000000	  42.2594000000	   7.1584200000
O	  19.6532000000	  41.1362000000	   8.6100900000
C	  18.1488000000	  40.9215000000	   6.7533600000
C	  19.4819000000	  40.5082000000	   7.3434700000
C	  17.4877000000	  43.1130000000	   6.0633900000
C	  20.7980000000	  40.5179000000	   9.3137000000
H	  17.3024000000	  40.3429000000	   7.1774500000
H	  18.2648000000	  40.6578000000	   5.7065900000
H	  19.6074000000	  39.4038000000	   7.4054000000
H	  20.3308000000	  40.9309000000	   6.7540800000
H	  16.3417000000	  43.1216000000	   5.9247400000
H	  17.6986000000	  44.0933000000	   6.3555600000
H	  18.0184000000	  43.0471000000	   5.1277000000
H	  21.1954000000	  41.1613000000	  10.1267000000
H	  20.3437000000	  39.5860000000	   9.7717300000
H	  21.4728000000	  40.2355000000	   8.6010900000
O	  17.3428000000	  44.3146000000	   9.0654500000
O	  17.3371000000	  41.8081000000	   9.9502000000
C	  16.0320000000	  43.8786000000	   9.4793200000
C	  16.2251000000	  42.6501000000	  10.3756000000
C	  17.2309000000	  45.6183000000	   8.3853800000
C	  17.0964000000	  40.4023000000	  10.2092000000
H	  15.4671000000	  44.6493000000	  10.0330000000
H	  15.4300000000	  43.5678000000	   8.6851000000
H	  16.3218000000	  42.9488000000	  11.3862000000
H	  15.2985000000	  42.0313000000	  10.4064000000
H	  16.9400000000	  46.4676000000	   8.9799900000
H	  18.2647000000	  45.7745000000	   8.0326200000
H	  16.5532000000	  45.4754000000	   7.5194500000
H	  16.1713000000	  39.9331000000	   9.6587800000
H	  17.9820000000	  39.7617000000	  10.0331000000
H	  16.8244000000	  40.2835000000	  11.2050000000
N	  21.4285000000	  46.2795000000	   8.2077300000
S	  22.4420000000	  47.3766000000	   8.0643200000
O	  23.6178000000	  46.9606000000	   7.3486800000
O	  21.9388000000	  48.7449000000	   8.0101300000
C	  23.0440000000	  47.1221000000	   9.7592100000
F	  23.1721000000	  45.8175000000	   9.9781100000
F	  22.1487000000	  47.5687000000	  10.6325000000
F	  24.1814000000	  47.7353000000	  10.0484000000
S	  21.1787000000	  44.8534000000	   7.5003700000
O	  20.0479000000	  44.0812000000	   8.0528100000
O	  22.3678000000	  44.0861000000	   7.1581500000
C	  20.5136000000	  45.3276000000	   5.9253100000
F	  20.0654000000	  44.2446000000	   5.1950600000
F	  19.3797000000	  46.0166000000	   6.1062800000
F	  21.3454000000	  46.1166000000	   5.2545700000
N	  19.0572000000	  43.4073000000	  13.3103000000
S	  18.7188000000	  41.8454000000	  13.3758000000
O	  17.2896000000	  41.6680000000	  13.4870000000
O	  19.4297000000	  41.0416000000	  12.4331000000
C	  19.3812000000	  41.5048000000	  15.0196000000
F	  20.6574000000	  41.3579000000	  15.0256000000
F	  18.8236000000	  40.4316000000	  15.5758000000
F	  19.1029000000	  42.5219000000	  15.8580000000
S	  19.6695000000	  44.1190000000	  12.1186000000
O	  19.6143000000	  45.5390000000	  12.2425000000
O	  19.3324000000	  43.5479000000	  10.7811000000
C	  21.4547000000	  43.7896000000	  12.4478000000
F	  22.2144000000	  44.4000000000	  11.5700000000
F	  21.8874000000	  44.0316000000	  13.6399000000
F	  21.6221000000	  42.4962000000	  12.2216000000
