48

Mg	  20.5433000000	   5.3478700000	  17.1396000000
O	  19.0094000000	   4.3024700000	  17.0309000000
C	  18.5225000000	   3.3419200000	  16.1326000000
C	  18.0020000000	   4.5405500000	  18.0757000000
C	  18.6346000000	   5.3289800000	  19.2324000000
O	  19.9096000000	   5.9358200000	  18.8094000000
C	  20.3649000000	   6.9537000000	  19.7704000000
H	  17.8631000000	   3.8980400000	  15.3937000000
H	  18.0265000000	   2.4681400000	  16.6534000000
H	  17.6160000000	   3.6147900000	  18.4927000000
H	  17.1013000000	   5.0530600000	  17.5830000000
H	  18.8053000000	   4.6610200000	  20.0918000000
H	  17.9816000000	   6.1677200000	  19.5775000000
H	  21.4404000000	   7.1473200000	  19.5596000000
H	  20.1963000000	   6.6288700000	  20.7562000000
H	  19.7219000000	   7.8764100000	  19.6605000000
H	  19.3916000000	   3.0422900000	  15.5289000000
O	  19.6325000000	   6.9707100000	  16.1630000000
C	  18.6660000000	   7.9484200000	  16.6653000000
C	  20.1796000000	   7.3426600000	  14.9498000000
C	  20.5154000000	   6.0182700000	  14.2463000000
O	  20.8521000000	   5.0181300000	  15.3059000000
C	  21.6618000000	   3.9608300000	  14.7478000000
H	  17.9327000000	   8.1316600000	  15.8997000000
H	  19.2093000000	   8.9609600000	  16.7990000000
H	  21.0424000000	   8.0443700000	  15.0700000000
H	  19.4447000000	   7.8345700000	  14.3134000000
H	  21.3550000000	   6.1874000000	  13.5853000000
H	  19.7258000000	   5.5667800000	  13.6179000000
H	  22.6394000000	   4.2576700000	  14.8669000000
H	  21.4457000000	   3.8270500000	  13.6581000000
H	  21.5620000000	   3.1050100000	  15.4074000000
H	  18.2598000000	   7.7049100000	  17.6028000000
N	  23.7637000000	   4.4247000000	  17.0477000000
S	  22.9230000000	   3.5784100000	  18.0388000000
O	  22.8727000000	   4.1219300000	  19.3894000000
O	  21.5442000000	   3.8882500000	  17.7852000000
C	  23.0903000000	   1.7754100000	  18.0574000000
F	  24.2396000000	   1.4902100000	  18.7404000000
F	  23.2834000000	   1.2302900000	  16.8651000000
F	  22.0734000000	   1.2115100000	  18.7736000000
S	  23.6565000000	   6.1574000000	  17.1172000000
O	  22.1596000000	   6.2826300000	  17.3199000000
O	  24.3113000000	   6.6277300000	  15.9071000000
C	  24.5020000000	   6.7496800000	  18.5613000000
F	  23.6861000000	   6.6951300000	  19.6964000000
F	  25.6986000000	   6.0108800000	  18.7591000000
F	  24.9612000000	   8.0147700000	  18.3346000000
