47

Mg	  33.5628000000	  32.7277000000	  35.0275000000
O	  31.8501000000	  32.1413000000	  34.1646000000
C	  31.4116000000	  32.1057000000	  32.7997000000
C	  30.7038000000	  31.9863000000	  35.0849000000
C	  31.2177000000	  31.3062000000	  36.3605000000
O	  32.6649000000	  31.4606000000	  36.4953000000
C	  33.0282000000	  30.6592000000	  37.6398000000
H	  32.3136000000	  32.1979000000	  32.2403000000
H	  30.7684000000	  32.9789000000	  32.5549000000
H	  30.0399000000	  31.3158000000	  34.6395000000
H	  30.1896000000	  32.8713000000	  35.3546000000
H	  31.0456000000	  30.2048000000	  36.2630000000
H	  30.7274000000	  31.7737000000	  37.2426000000
H	  32.7568000000	  29.6027000000	  37.6144000000
H	  32.6794000000	  31.0965000000	  38.5600000000
H	  34.1368000000	  30.7064000000	  37.5811000000
H	  30.9011000000	  31.1532000000	  32.7605000000
N	  36.5593000000	  30.8337000000	  35.4952000000
S	  35.6962000000	  30.7114000000	  34.2056000000
O	  34.3886000000	  31.2137000000	  34.3870000000
O	  36.2115000000	  31.7211000000	  33.2737000000
C	  35.6106000000	  29.1770000000	  33.1097000000
F	  36.8609000000	  28.9063000000	  32.6210000000
F	  34.7058000000	  29.3925000000	  32.1533000000
F	  35.3192000000	  28.0880000000	  33.7701000000
S	  36.5328000000	  32.3519000000	  36.3135000000
O	  36.4079000000	  31.6304000000	  37.6080000000
O	  35.2060000000	  32.9952000000	  35.8700000000
C	  37.9854000000	  33.3497000000	  35.9419000000
F	  39.1127000000	  32.7580000000	  36.4621000000
F	  38.1279000000	  33.5360000000	  34.5998000000
F	  37.9987000000	  34.5015000000	  36.5405000000
N	  33.3030000000	  36.0898000000	  34.8922000000
S	  32.0872000000	  35.4053000000	  35.5348000000
O	  31.1640000000	  35.0478000000	  34.5348000000
O	  32.5932000000	  34.1094000000	  35.8770000000
C	  31.3090000000	  36.3582000000	  36.9166000000
F	  30.3693000000	  35.7524000000	  37.6486000000
F	  30.6286000000	  37.3996000000	  36.4192000000
F	  32.2725000000	  36.9012000000	  37.7391000000
S	  34.4177000000	  35.4046000000	  33.7184000000
O	  34.1006000000	  33.9782000000	  33.7728000000
O	  35.7415000000	  35.6948000000	  34.2433000000
C	  33.8541000000	  36.2021000000	  32.2130000000
F	  34.4678000000	  35.8394000000	  31.0598000000
F	  32.4851000000	  36.0098000000	  32.0020000000
F	  34.1189000000	  37.5393000000	  32.2997000000
