49

Mg	  40.0958000000	  36.0189000000	  25.4173000000
O	  38.3135000000	  36.7023000000	  25.0411000000
C	  37.2260000000	  36.1846000000	  24.2274000000
C	  38.1878000000	  38.0914000000	  25.5771000000
C	  38.8997000000	  38.0998000000	  26.9594000000
O	  40.0487000000	  37.2386000000	  26.8804000000
C	  40.8238000000	  37.3063000000	  28.0878000000
H	  37.6036000000	  35.4982000000	  23.4537000000
H	  36.7139000000	  37.0480000000	  23.8754000000
H	  37.1401000000	  38.2119000000	  25.7943000000
H	  38.4687000000	  38.8849000000	  24.8953000000
H	  38.2141000000	  37.7592000000	  27.8127000000
H	  39.2519000000	  39.1525000000	  27.2490000000
H	  41.1419000000	  38.3906000000	  28.1510000000
H	  41.7531000000	  36.6891000000	  28.0875000000
H	  40.2751000000	  37.0247000000	  28.9849000000
H	  36.5421000000	  35.6810000000	  24.8745000000
O	  40.1440000000	  34.8482000000	  23.9347000000
C	  39.8734000000	  33.4914000000	  23.8343000000
C	  40.6836000000	  35.3369000000	  22.7255000000
C	  40.9676000000	  36.8400000000	  22.8380000000
O	  40.8415000000	  37.2897000000	  24.2500000000
C	  41.2499000000	  38.6377000000	  24.5069000000
H	  40.8036000000	  32.9611000000	  23.5846000000
H	  39.1480000000	  33.2258000000	  23.1067000000
H	  40.0311000000	  35.2225000000	  21.9107000000
H	  41.7201000000	  34.8308000000	  22.5103000000
H	  40.3384000000	  37.4381000000	  22.1782000000
H	  42.0139000000	  36.9489000000	  22.4068000000
H	  40.9108000000	  39.3942000000	  23.8024000000
H	  42.3200000000	  38.5814000000	  24.4637000000
H	  40.9852000000	  38.9573000000	  25.4647000000
H	  39.5179000000	  33.1110000000	  24.8264000000
O	  39.3898000000	  34.6433000000	  26.6028000000
C	  38.1546000000	  34.4474000000	  27.2906000000
C	  40.3620000000	  33.7507000000	  27.1591000000
C	  41.6991000000	  33.8911000000	  26.4642000000
O	  41.8512000000	  35.2628000000	  25.9573000000
C	  43.1689000000	  35.5336000000	  25.4333000000
H	  37.7425000000	  33.4371000000	  27.2414000000
H	  37.4778000000	  35.2212000000	  27.0268000000
H	  40.0959000000	  32.7323000000	  26.9997000000
H	  40.4189000000	  33.9767000000	  28.1770000000
H	  41.7873000000	  33.2511000000	  25.5781000000
H	  42.5512000000	  33.7952000000	  27.1647000000
H	  43.8800000000	  35.4489000000	  26.2720000000
H	  43.1468000000	  36.5895000000	  25.1328000000
H	  43.4758000000	  34.9381000000	  24.5713000000
H	  38.4228000000	  34.7560000000	  28.3214000000
