63

Mg	  38.3727000000	  28.4248000000	  10.0682000000
O	  38.9537000000	  29.5235000000	  11.6216000000
O	  39.4626000000	  29.6384000000	   9.0200700000
C	  40.1897000000	  30.1343000000	  11.3324000000
C	  40.1135000000	  30.6566000000	   9.8921800000
C	  38.7819000000	  29.4840000000	  13.0096000000
C	  39.2172000000	  30.1444000000	   7.7290500000
H	  40.4817000000	  31.0344000000	  11.9047000000
H	  41.1092000000	  29.5005000000	  11.3443000000
H	  39.4814000000	  31.4807000000	   9.7415700000
H	  41.1625000000	  31.0308000000	   9.5578700000
H	  37.7204000000	  29.3170000000	  13.3245000000
H	  39.4889000000	  28.7355000000	  13.3926000000
H	  39.0589000000	  30.3887000000	  13.5166000000
H	  38.7230000000	  29.3707000000	   7.1086900000
H	  38.7138000000	  31.0561000000	   7.7355200000
H	  40.2050000000	  30.3408000000	   7.2501200000
O	  37.8084000000	  27.2388000000	   8.3942700000
O	  37.3184000000	  27.0033000000	  10.7695000000
C	  36.4582000000	  26.8383000000	   8.4821600000
C	  36.3358000000	  26.4602000000	   9.9669400000
C	  38.4718000000	  26.8352000000	   7.1419400000
C	  37.1014000000	  26.6453000000	  12.1540000000
H	  35.8873000000	  27.6790000000	   8.0895200000
H	  36.3035000000	  25.9231000000	   7.8768900000
H	  35.3587000000	  26.7200000000	  10.3039000000
H	  36.4738000000	  25.3471000000	  10.1332000000
H	  38.3924000000	  27.4742000000	   6.2518200000
H	  39.5646000000	  26.9148000000	   7.1954200000
H	  38.2315000000	  25.8791000000	   6.8566000000
H	  37.8864000000	  26.9676000000	  12.8165000000
H	  36.1683000000	  27.0899000000	  12.5012000000
H	  37.0190000000	  25.6404000000	  12.2483000000
N	  35.5435000000	  31.4170000000	  11.2733000000
S	  35.1273000000	  30.8005000000	  12.6422000000
O	  34.8734000000	  29.3762000000	  12.5572000000
O	  35.9559000000	  31.2747000000	  13.7408000000
C	  33.4467000000	  31.5063000000	  12.9572000000
F	  32.7795000000	  31.2032000000	  14.0683000000
F	  32.5164000000	  31.3236000000	  12.0152000000
F	  33.5617000000	  32.8512000000	  13.0025000000
S	  35.8761000000	  30.6979000000	   9.9056400000
O	  36.8331000000	  29.6198000000	   9.9416200000
O	  36.1442000000	  31.6312000000	   8.8582600000
C	  34.3068000000	  29.8490000000	   9.4431900000
F	  33.1937000000	  30.4070000000	   9.8915700000
F	  34.2639000000	  29.7513000000	   8.1303200000
F	  34.2645000000	  28.5764000000	   9.9413200000
N	  39.8509000000	  24.6343000000	  10.2917000000
S	  40.0497000000	  23.3897000000	   9.3430200000
O	  39.9697000000	  23.6864000000	   7.9302900000
O	  41.0823000000	  22.4106000000	   9.7740500000
C	  38.5396000000	  22.5441000000	   9.7885400000
F	  38.6395000000	  22.0393000000	  11.0106000000
F	  38.3759000000	  21.4608000000	   8.9661400000
F	  37.4018000000	  23.2907000000	   9.7653100000
S	  40.6663000000	  25.9194000000	  10.5449000000
O	  39.9183000000	  27.1302000000	  10.4484000000
O	  42.0082000000	  25.9258000000	   9.9821700000
C	  40.9725000000	  25.7205000000	  12.3685000000
F	  39.9691000000	  26.2026000000	  13.1328000000
F	  41.0406000000	  24.4381000000	  12.6925000000
F	  42.0326000000	  26.3363000000	  12.8596000000
