49

Mg	  30.3793000000	   1.7234100000	  11.4849000000
O	  29.1099000000	   0.4594700000	  12.3802000000
C	  27.8115000000	  -0.1607300000	  12.0032000000
C	  29.8156000000	  -0.4578300000	  13.2802000000
C	  30.9539000000	   0.4146700000	  13.9566000000
O	  31.5810000000	   1.1091700000	  12.8486000000
C	  32.8942000000	   1.6080400000	  13.2062000000
H	  27.1891000000	  -0.4631300000	  12.8876000000
H	  28.0335000000	  -1.0602300000	  11.4251000000
H	  30.2487000000	  -1.2794300000	  12.6551000000
H	  29.1520000000	  -0.7752300000	  14.0503000000
H	  31.7006000000	  -0.2177300000	  14.3507000000
H	  30.4315000000	   1.0142700000	  14.6551000000
H	  32.7837000000	   2.5352700000	  13.7919000000
H	  33.2770000000	   1.8135200000	  12.2050000000
H	  33.5073000000	   0.8988700000	  13.7476000000
H	  27.2657000000	   0.5433700000	  11.4026000000
O	  29.0933000000	   2.0669200000	  10.2483000000
C	  28.1945000000	   3.1815900000	  10.0136000000
C	  28.9950000000	   1.1636300000	   9.1060700000
C	  30.0351000000	   0.0580700000	   9.2783700000
O	  30.9867000000	   0.3956700000	  10.3243000000
C	  31.9113000000	  -0.7382300000	  10.4303000000
H	  28.6281000000	   3.8406900000	   9.2589900000
H	  27.9573000000	   3.7677400000	  10.9365000000
H	  29.1207000000	   1.7046100000	   8.1463500000
H	  28.0007000000	   0.7933700000	   8.8997600000
H	  30.5916000000	   0.0168700000	   8.3753800000
H	  29.5228000000	  -0.9281300000	   9.4332200000
H	  32.4509000000	  -0.8088300000	   9.4567900000
H	  31.3959000000	  -1.6689300000	  10.6342000000
H	  32.7227000000	  -0.5451300000	  11.1342000000
H	  27.2241000000	   2.7714800000	   9.6201000000
O	  29.8105000000	   3.2640500000	  12.5485000000
C	  28.7416000000	   3.5976100000	  13.4731000000
C	  30.7693000000	   4.4557800000	  12.4024000000
C	  31.9740000000	   4.1084300000	  11.5538000000
O	  31.7216000000	   2.9366300000	  10.7654000000
C	  32.8090000000	   2.6991600000	   9.8701800000
H	  28.3005000000	   4.5328600000	  13.1653000000
H	  28.9456000000	   3.6175200000	  14.6035000000
H	  31.0844000000	   4.8509300000	  13.3893000000
H	  30.0885000000	   5.1990100000	  11.8465000000
H	  32.8885000000	   4.0150000000	  12.1487000000
H	  32.2264000000	   4.9481900000	  10.8525000000
H	  33.1237000000	   3.6720800000	   9.4939800000
H	  32.4724000000	   2.0139400000	   9.0148300000
H	  33.5777000000	   2.0951600000	  10.3258000000
H	  28.0320000000	   2.7785600000	  13.3884000000
