49

Mg	  23.4855000000	  32.8335000000	  13.8975000000
O	  21.6590000000	  32.9713000000	  13.8170000000
C	  20.4956000000	  32.0473000000	  13.8344000000
C	  21.1039000000	  34.2802000000	  13.4217000000
C	  22.2436000000	  35.1867000000	  12.9298000000
O	  23.4107000000	  34.3947000000	  12.8514000000
C	  24.5302000000	  35.1494000000	  12.1984000000
H	  19.9126000000	  32.2987000000	  12.9168000000
H	  19.8436000000	  32.2654000000	  14.6311000000
H	  20.6290000000	  34.7514000000	  14.3388000000
H	  20.2856000000	  34.2375000000	  12.7533000000
H	  22.2429000000	  36.0298000000	  13.5905000000
H	  22.0987000000	  35.6072000000	  11.8953000000
H	  24.3386000000	  35.3397000000	  11.1545000000
H	  25.4701000000	  34.6529000000	  12.3541000000
H	  24.5439000000	  36.1565000000	  12.6922000000
H	  20.7839000000	  31.0065000000	  13.8184000000
O	  23.8404000000	  33.7506000000	  15.5866000000
C	  22.9739000000	  34.4187000000	  16.4661000000
C	  25.1343000000	  33.5922000000	  16.2066000000
C	  25.9527000000	  32.6772000000	  15.2746000000
O	  25.4093000000	  32.7664000000	  13.9415000000
C	  26.4260000000	  32.4262000000	  12.9744000000
H	  23.1203000000	  35.5720000000	  16.2524000000
H	  23.1861000000	  34.1112000000	  17.5156000000
H	  25.0605000000	  33.1809000000	  17.2056000000
H	  25.6757000000	  34.5392000000	  16.1333000000
H	  25.7716000000	  31.5992000000	  15.5749000000
H	  27.0187000000	  32.8706000000	  15.3452000000
H	  27.1738000000	  33.2961000000	  12.8921000000
H	  26.0025000000	  32.3965000000	  11.9320000000
H	  27.0168000000	  31.5029000000	  13.2436000000
H	  21.9772000000	  34.2371000000	  16.2249000000
O	  23.4788000000	  31.7511000000	  12.3222000000
C	  23.0164000000	  32.0421000000	  10.9553000000
C	  23.1543000000	  30.3440000000	  12.6040000000
C	  23.2984000000	  30.0548000000	  14.1642000000
O	  23.2229000000	  31.2495000000	  15.0224000000
C	  23.0618000000	  30.8838000000	  16.4625000000
H	  23.5297000000	  31.3205000000	  10.2949000000
H	  23.3386000000	  33.0669000000	  10.6607000000
H	  23.7706000000	  29.6024000000	  11.9368000000
H	  22.1240000000	  30.2394000000	  12.2244000000
H	  24.2010000000	  29.5082000000	  14.4421000000
H	  22.5409000000	  29.3841000000	  14.4566000000
H	  22.1669000000	  30.2424000000	  16.5825000000
H	  22.8651000000	  31.8156000000	  17.0905000000
H	  23.9275000000	  30.3571000000	  16.8509000000
H	  21.9005000000	  31.9759000000	  10.9966000000
