47

Mg	  13.0705000000	  46.5428000000	  28.0058000000
O	  14.8391000000	  46.2265000000	  28.3951000000
C	  16.1548000000	  46.7753000000	  28.2097000000
C	  14.8808000000	  45.1431000000	  29.3291000000
C	  13.5041000000	  44.4003000000	  29.4491000000
O	  12.8635000000	  44.6803000000	  28.1973000000
C	  11.8069000000	  43.7551000000	  27.9320000000
H	  16.7785000000	  46.0889000000	  27.7289000000
H	  16.6197000000	  47.0715000000	  29.1483000000
H	  15.2112000000	  45.4026000000	  30.3506000000
H	  15.5728000000	  44.3102000000	  29.0361000000
H	  12.8421000000	  44.7011000000	  30.2813000000
H	  13.6534000000	  43.2755000000	  29.5708000000
H	  11.4882000000	  43.8224000000	  26.8851000000
H	  10.8803000000	  43.9233000000	  28.5304000000
H	  12.1959000000	  42.8333000000	  28.2349000000
H	  16.0500000000	  47.7176000000	  27.6005000000
N	  12.7477000000	  49.4779400000	  30.0505000000
S	  12.8991000000	  48.1219000000	  30.7408000000
O	  12.5943000000	  47.0275000000	  29.8317000000
O	  14.2706000000	  47.9779000000	  31.1346000000
C	  11.9449000000	  47.9673000000	  32.2221000000
F	  12.0594000000	  49.0910200000	  32.9854000000
F	  12.2841000000	  46.9538000000	  32.9832000000
F	  10.6502000000	  47.7689000000	  31.8810000000
S	  13.2479000000	  49.7431600000	  28.4166000000
O	  12.1294000000	  50.3961800000	  27.8082000000
O	  13.5513000000	  48.4047000000	  27.7981000000
C	  14.7346000000	  50.7651300000	  28.3788000000
F	  15.3515000000	  50.7447100000	  27.1810000000
F	  14.4286000000	  52.0538700000	  28.7058000000
F	  15.7320000000	  50.3903000000	  29.2660000000
N	  11.6512000000	  47.5526000000	  25.1570000000
S	  12.7880000000	  46.5691000000	  24.8003000000
O	  13.4106000000	  46.2908000000	  26.0851000000
O	  12.3226000000	  45.2848000000	  24.4369000000
C	  13.9782000000	  47.1393000000	  23.5404000000
F	  14.7811000000	  48.0307000000	  24.0538000000
F	  13.3053000000	  47.5643000000	  22.4920000000
F	  14.7977000000	  46.1654000000	  23.0964000000
S	  10.4878000000	  46.9579000000	  26.2711000000
O	  11.3110000000	  46.8963000000	  27.4997000000
O	  10.0899000000	  45.5870000000	  25.9676000000
C	   8.9839700000	  48.0971000000	  26.2197000000
F	   9.1041700000	  49.1531600000	  27.0001000000
F	   8.6193800000	  48.5653000000	  24.9888000000
F	   7.9854700000	  47.4398000000	  26.6990000000
