64

Mg	  16.4220000000	   0.9116820000	  20.0830000000
O	  15.9737000000	   0.8419110000	  18.1814000000
O	  14.5475000000	   1.1237600000	  20.4561000000
C	  14.6972000000	   1.4391100000	  17.9561000000
C	  13.8491000000	   0.9109220000	  19.2133000000
C	  16.8396000000	   1.1096100000	  17.0624000000
C	  13.5800000000	   1.0850700000	  21.4472000000
H	  14.8147000000	   2.4596200000	  17.8487000000
H	  14.3227000000	   1.0982900000	  17.0190000000
H	  12.9080000000	   1.4934200000	  19.0799000000
H	  13.7312000000	  -0.1615488362	  19.0313000000
H	  17.8309000000	   0.5923830000	  17.2429000000
H	  16.2483000000	   0.6569110000	  16.1662000000
H	  17.1831000000	   2.0939800000	  16.8601000000
H	  13.3203000000	   0.0559511638	  21.7598000000
H	  13.8699000000	   1.5381700000	  22.3974000000
H	  12.6581000000	   1.5282700000	  21.0763000000
O	  18.3365000000	   0.8227610000	  19.5785000000
O	  16.7299000000	   2.8185400000	  19.8168000000
C	  19.0282000000	   2.0790800000	  19.4902000000
C	  18.0304000000	   3.2508800000	  19.3262000000
C	  19.2395000000	  -0.2874488362	  19.3079000000
C	  15.9721000000	   4.0206500000	  19.8398000000
H	  19.7214000000	   2.1004400000	  20.3049000000
H	  19.6947000000	   2.1879900000	  18.5592000000
H	  18.3804000000	   4.1584100000	  19.8684000000
H	  18.1121000000	   3.4647100000	  18.2848000000
H	  18.6298000000	  -1.1845488362	  19.3286000000
H	  19.7074000000	  -0.2397488362	  18.3378000000
H	  20.0074000000	  -0.3518488362	  20.0662000000
H	  14.9794000000	   3.7366300000	  19.9986000000
H	  16.2360000000	   4.6288700000	  20.7110000000
H	  15.9292000000	   4.5685100000	  18.9273000000
O	  16.0113000000	  -0.9504488362	  20.3516000000
O	  17.9753000000	  -1.2012488362	  22.4038000000
C	  15.6867000000	  -1.5371488362	  21.6606000000
C	  16.8621000000	  -2.1085488362	  22.4182000000
C	  15.9204000000	  -1.9010488362	  19.2931000000
C	  19.1345000000	  -1.5529488362	  23.1300000000
H	  15.3061000000	  -0.8655488362	  22.3910000000
H	  14.9062000000	  -2.2874488362	  21.5820000000
H	  16.6697000000	  -2.2851488362	  23.4434000000
H	  17.2085000000	  -2.9671488362	  21.8674000000
H	  16.4030000000	  -1.5115488362	  18.4545000000
H	  16.4422000000	  -2.8599488362	  19.4954000000
H	  14.8954000000	  -2.1671488362	  19.0153000000
H	  19.7049000000	  -0.5905488362	  23.2311000000
H	  18.9518000000	  -1.9725488362	  24.1318000000
H	  19.6721000000	  -2.3212488362	  22.5500000000
N	  18.7740000000	   2.0509500000	  23.3406000000
S	  19.7250000000	   3.2093000000	  23.6647000000
O	  19.7252000000	   4.3642100000	  22.8260000000
O	  19.9800000000	   3.3838900000	  25.0652000000
C	  21.2827000000	   2.3140500000	  23.1785000000
F	  22.3301000000	   3.0803900000	  23.0166000000
F	  21.2363000000	   1.6509300000	  22.0553000000
F	  21.6553000000	   1.4635200000	  24.1494000000
S	  17.2686000000	   2.1614800000	  23.1565000000
O	  16.8284000000	   1.3434000000	  22.0543000000
O	  16.7151000000	   3.5015700000	  23.1463000000
C	  16.5811000000	   1.3684900000	  24.7016000000
F	  16.9848000000	   0.1102511638	  24.6964000000
F	  17.0329000000	   1.9076000000	  25.7446000000
F	  15.2172000000	   1.3822600000	  24.7841000000
